
     RDKit          3D

 18 19  0  0  0  0  0  0  0  0999 V2000
    4.0295    0.4059   -0.4746 C   0  0  0  0  0  0  0  0  0  0  0  0
    3.0276    0.1052   -1.5786 C   0  0  0  0  0  0  0  0  0  0  0  0
    1.7355   -0.2363   -0.9137 N   0  0  0  0  0  0  0  0  0  0  0  0
    1.5860   -1.6390   -0.5852 C   0  0  0  0  0  0  0  0  0  0  0  0
    2.1663   -1.9184    0.7880 C   0  0  0  0  0  0  0  0  0  0  0  0
    0.8282    0.7984   -0.6416 C   0  0  0  0  0  0  0  0  0  0  0  0
    1.2701    1.9735   -0.9719 O   0  0  0  0  0  0  0  0  0  0  0  0
   -0.4202    0.6480   -0.0765 C   0  0  2  0  0  0  0  0  0  0  0  0
   -1.2231   -0.5850    0.1302 C   0  0  0  0  0  0  0  0  0  0  0  0
   -1.4731   -1.3860   -0.9534 C   0  0  0  0  0  0  0  0  0  0  0  0
   -2.2167   -2.5579   -0.8444 C   0  0  0  0  0  0  0  0  0  0  0  0
   -2.7038   -2.9029    0.3901 C   0  0  0  0  0  0  0  0  0  0  0  0
   -2.4792   -2.1369    1.4914 C   0  0  0  0  0  0  0  0  0  0  0  0
   -1.7355   -0.9796    1.3418 C   0  0  0  0  0  0  0  0  0  0  0  0
   -1.4924    1.8877   -0.5091 C   0  0  0  0  0  0  0  0  0  0  0  0
   -0.9744    1.7534    1.0851 C   0  0  2  0  0  0  0  0  0  0  0  0
    0.2449    2.8989    0.9819 C   0  0  0  0  0  0  0  0  0  0  0  0
   -0.1697    3.8709    1.9503 N   0  0  0  0  0  0  0  0  0  0  0  0
  1  2  1  0
  2  3  1  0
  3  4  1  0
  4  5  1  0
  3  6  1  0
  6  7  2  0
  8  6  1  6
  8  9  1  0
  9 10  2  0
 10 11  1  0
 11 12  2  0
 12 13  1  0
 13 14  2  0
  8 15  1  0
 15 16  1  0
 16 17  1  6
 17 18  1  0
 16  8  1  0
 14  9  1  0
M  END
>  <zinc_id>  (1) 
ZINC000000014037

>  <smiles>  (1) 
CCN(CC)C(=O)[C@]1(c2ccccc2)C[C@@H]1CN

$$$$
