
     RDKit          3D

 24 26  0  0  0  0  0  0  0  0999 V2000
   -5.6424   -0.0062   -0.4589 N   0  0  0  0  0  0  0  0  0  0  0  0
   -4.6491    0.2029   -0.0938 C   0  0  0  0  0  0  0  0  0  0  0  0
   -4.3462    1.3601    0.5728 N   0  0  0  0  0  0  0  0  0  0  0  0
   -3.1267    1.6704    1.0481 C   0  0  0  0  0  0  0  0  0  0  0  0
   -2.8389    2.8331    1.7136 F   0  0  0  0  0  0  0  0  0  0  0  0
   -2.0739    0.8206    0.8908 N   0  0  0  0  0  0  0  0  0  0  0  0
   -2.2837   -0.3375    0.2479 C   0  0  0  0  0  0  0  0  0  0  0  0
   -3.5736   -0.6470   -0.2453 C   0  0  0  0  0  0  0  0  0  0  0  0
   -3.4488   -1.8578   -0.8278 N   0  0  0  0  0  0  0  0  0  0  0  0
   -2.1390   -2.2575   -0.6895 C   0  0  0  0  0  0  0  0  0  0  0  0
   -1.4653   -1.3259   -0.0408 N   0  0  0  0  0  0  0  0  0  0  0  0
    0.0022   -1.4032    0.3023 C   0  0  2  0  0  0  0  0  0  0  0  0
    0.4018    0.0582    0.1682 O   0  0  0  0  0  0  0  0  0  0  0  0
    1.7323   -0.5888    0.5449 C   0  0  2  0  0  0  0  0  0  0  0  0
    2.5994    0.8033    0.4477 C   0  0  0  0  0  0  0  0  0  0  0  0
    3.8312    0.1970    0.7978 O   0  0  0  0  0  0  0  0  0  0  0  0
    5.0956    1.2904    0.8330 P   0  0  0  0  0  0  0  0  0  0  0  0
    4.6043    2.6602    1.2202 O   0  0  0  0  0  0  0  0  0  0  0  0
    5.9848    1.3124   -0.6003 O   0  0  0  0  0  0  0  0  0  0  0  0
    6.1426    0.7797    2.0653 O   0  0  0  0  0  0  0  0  0  0  0  0
    2.0009   -0.9416   -1.0929 C   0  0  1  0  0  0  0  0  0  0  0  0
    2.7577   -2.2044   -0.7579 O   0  0  0  0  0  0  0  0  0  0  0  0
    0.5466   -1.7782   -1.2730 C   0  0  2  0  0  0  0  0  0  0  0  0
   -0.1119   -0.6401   -1.9797 O   0  0  0  0  0  0  0  0  0  0  0  0
  1  2  1  0
  2  3  2  0
  3  4  1  0
  4  5  1  0
  4  6  2  0
  6  7  1  0
  7  8  2  0
  8  9  1  0
  9 10  2  0
 10 11  1  0
 12 11  1  6
 12 13  1  0
 13 14  1  0
 14 15  1  6
 15 16  1  0
 16 17  1  0
 17 18  2  0
 17 19  1  0
 17 20  1  0
 14 21  1  0
 21 22  1  1
 21 23  1  0
 23 24  1  6
  8  2  1  0
 23 12  1  0
 11  7  1  0
M  END
>  <zinc_id>  (1) 
ZINC000003927870

>  <smiles>  (1) 
Nc1nc(F)nc2c1ncn2[C@@H]1O[C@H](COP(=O)(O)O)[C@@H](O)[C@@H]1O

$$$$
