
     RDKit          3D

 24 27  0  0  0  0  0  0  0  0999 V2000
   -4.3330   -0.1967   -1.5935 C   0  0  0  0  0  0  0  0  0  0  0  0
   -3.7344    0.0640   -0.3940 C   0  0  2  0  0  0  0  0  0  0  0  0
   -4.7488   -0.3792    0.4799 O   0  0  0  0  0  0  0  0  0  0  0  0
   -3.7299    1.5252    0.0401 C   0  0  0  0  0  0  0  0  0  0  0  0
   -2.6934    1.4073    1.1579 C   0  0  0  0  0  0  0  0  0  0  0  0
   -1.5896    0.9505    0.0488 C   0  0  1  0  0  0  0  0  0  0  0  0
   -0.5012    0.2014    1.0779 C   0  0  2  0  0  0  0  0  0  0  0  0
    0.2651    1.5156    1.5051 C   0  0  0  0  0  0  0  0  0  0  0  0
    1.2849    2.0104    0.6507 C   0  0  0  0  0  0  0  0  0  0  0  0
    2.2655    0.9656    0.3460 C   0  0  0  0  0  0  0  0  0  0  0  0
    3.4842    1.3503    0.0759 C   0  0  0  0  0  0  0  0  0  0  0  0
    4.4837    0.3612   -0.2308 C   0  0  0  0  0  0  0  0  0  0  0  0
    5.6936    0.6701   -0.1804 O   0  0  0  0  0  0  0  0  0  0  0  0
    4.0550   -0.9951   -0.5978 C   0  0  0  0  0  0  0  0  0  0  0  0
    2.5888   -1.2281   -0.6659 C   0  0  0  0  0  0  0  0  0  0  0  0
    1.8040   -0.4533    0.3566 C   0  0  1  0  0  0  0  0  0  0  0  0
    2.0203   -1.0614    1.6968 C   0  0  0  0  0  0  0  0  0  0  0  0
    0.4262   -0.3102   -0.0981 C   0  0  2  0  0  0  0  0  0  0  0  0
    0.3776    0.3558   -1.2304 F   0  0  0  0  0  0  0  0  0  0  0  0
   -0.1996   -1.7355   -0.5635 C   0  0  1  0  0  0  0  0  0  0  0  0
   -0.5202   -2.3020    0.7977 O   0  0  0  0  0  0  0  0  0  0  0  0
   -1.6748   -1.2340   -1.0254 C   0  0  0  0  0  0  0  0  0  0  0  0
   -2.3955   -0.4627   -0.1163 C   0  0  2  0  0  0  0  0  0  0  0  0
   -2.6287   -1.0192    1.2830 C   0  0  0  0  0  0  0  0  0  0  0  0
  2  1  1  6
  2  3  1  0
  2  4  1  0
  4  5  1  0
  6  5  1  1
  6  7  1  0
  7  8  1  1
  8  9  1  0
  9 10  1  0
 10 11  2  0
 11 12  1  0
 12 13  2  0
 12 14  1  0
 14 15  1  0
 15 16  1  0
 16 17  1  1
 16 18  1  0
 18 19  1  6
 18 20  1  0
 20 21  1  1
 20 22  1  0
 22 23  1  0
 23 24  1  1
 23  2  1  0
 23  6  1  0
 18  7  1  0
 16 10  1  0
M  END
>  <zinc_id>  (1) 
ZINC000003875484

>  <smiles>  (1) 
C[C@]1(O)CC[C@H]2[C@@H]3CCC4=CC(=O)CC[C@]4(C)[C@@]3(F)[C@@H](O)C[C@@]21C

$$$$
