
     RDKit          3D

 40 43  0  0  0  0  0  0  0  0999 V2000
    4.9411    0.7469   -5.1543 C   0  0  0  0  0  0  0  0  0  0  0  0
    4.0508   -0.3544   -4.5808 C   0  0  0  0  0  0  0  0  0  0  0  0
    3.6577    0.0845   -3.3028 O   0  0  0  0  0  0  0  0  0  0  0  0
    2.8338   -0.6723   -2.4830 C   0  0  0  0  0  0  0  0  0  0  0  0
    2.3993   -1.8894   -2.9572 C   0  0  0  0  0  0  0  0  0  0  0  0
    1.5787   -2.6998   -2.2033 C   0  0  0  0  0  0  0  0  0  0  0  0
    1.1654   -3.8958   -2.6987 N   0  0  0  0  0  0  0  0  0  0  0  0
    0.3646   -4.6843   -1.9609 C   0  0  0  0  0  0  0  0  0  0  0  0
   -0.0607   -4.3229   -0.7037 C   0  0  0  0  0  0  0  0  0  0  0  0
   -0.9227   -5.1686    0.0925 C   0  0  0  0  0  0  0  0  0  0  0  0
   -1.6228   -5.8336    0.7294 N   0  0  0  0  0  0  0  0  0  0  0  0
    0.3768   -3.0876   -0.2135 C   0  0  0  0  0  0  0  0  0  0  0  0
   -0.0424   -2.6916    1.0686 N   0  0  0  0  0  0  0  0  0  0  0  0
   -1.2449   -1.9400    1.2837 C   0  0  0  0  0  0  0  0  0  0  0  0
   -2.0571   -1.5395    0.2318 C   0  0  0  0  0  0  0  0  0  0  0  0
   -3.2120   -0.8160    0.4831 C   0  0  0  0  0  0  0  0  0  0  0  0
   -3.5901   -0.4747    1.7512 C   0  0  0  0  0  0  0  0  0  0  0  0
   -4.7355    0.2390    1.9783 O   0  0  0  0  0  0  0  0  0  0  0  0
   -5.6499    0.7185    1.0522 C   0  0  0  0  0  0  0  0  0  0  0  0
   -5.1086    1.6820    0.0698 C   0  0  0  0  0  0  0  0  0  0  0  0
   -5.7325    1.9942   -1.1095 C   0  0  0  0  0  0  0  0  0  0  0  0
   -5.1563    2.9159   -1.9618 C   0  0  0  0  0  0  0  0  0  0  0  0
   -3.9613    3.5073   -1.6113 C   0  0  0  0  0  0  0  0  0  0  0  0
   -3.3446    3.1832   -0.4209 C   0  0  0  0  0  0  0  0  0  0  0  0
   -3.9469    2.2915    0.3548 N   0  0  0  0  0  0  0  0  0  0  0  0
   -2.7932   -0.8643    2.8170 C   0  0  0  0  0  0  0  0  0  0  0  0
   -3.2530   -0.4384    4.4729 Cl  0  0  0  0  0  0  0  0  0  0  0  0
   -1.6574   -1.5779    2.5471 C   0  0  0  0  0  0  0  0  0  0  0  0
    1.1988   -2.2615   -0.9517 C   0  0  0  0  0  0  0  0  0  0  0  0
    1.6410   -1.0344   -0.4818 C   0  0  0  0  0  0  0  0  0  0  0  0
    2.4614   -0.2130   -1.2232 C   0  0  0  0  0  0  0  0  0  0  0  0
    2.9401    1.0503   -0.7867 N   0  0  0  0  0  0  0  0  0  0  0  0
    2.6293    1.6276    0.4733 C   0  0  0  0  0  0  0  0  0  0  0  0
    1.8851    1.0006    1.2703 O   0  0  0  0  0  0  0  0  0  0  0  0
    3.2109    2.9331    0.7507 C   0  0  0  0  0  0  0  0  0  0  0  0
    3.0456    3.6271    1.8477 C   0  0  0  0  0  0  0  0  0  0  0  0
    3.6720    4.9623    2.0683 C   0  0  0  0  0  0  0  0  0  0  0  0
    4.5411    4.9884    3.2026 N   0  0  0  0  0  0  0  0  0  0  0  0
    3.8546    4.8516    4.4752 C   0  0  0  0  0  0  0  0  0  0  0  0
    5.6438    4.0557    3.0851 C   0  0  0  0  0  0  0  0  0  0  0  0
  1  2  1  0
  2  3  1  0
  3  4  1  0
  4  5  2  0
  5  6  1  0
  6  7  2  0
  7  8  1  0
  8  9  2  0
  9 10  1  0
 10 11  3  0
  9 12  1  0
 12 13  1  0
 13 14  1  0
 14 15  2  0
 15 16  1  0
 16 17  2  0
 17 18  1  0
 18 19  1  0
 19 20  1  0
 20 21  2  0
 21 22  1  0
 22 23  2  0
 23 24  1  0
 24 25  2  0
 17 26  1  0
 26 27  1  0
 26 28  2  0
 12 29  2  0
 29 30  1  0
 30 31  2  0
 31 32  1  0
 32 33  1  0
 33 34  2  0
 33 35  1  0
 35 36  2  0
 36 37  1  0
 37 38  1  0
 38 39  1  0
 38 40  1  0
 31  4  1  0
 29  6  1  0
 28 14  1  0
 25 20  1  0
M  END
>  <zinc_id>  (1) 
ZINC000003916214

>  <smiles>  (1) 
CCOc1cc2ncc(C#N)c(Nc3ccc(OCc4ccccn4)c(Cl)c3)c2cc1NC(=O)/C=C/CN(C)C

$$$$
