
     RDKit          3D

 19 20  0  0  0  0  0  0  0  0999 V2000
   -1.4413    3.2104    0.3322 C   0  0  0  0  0  0  0  0  0  0  0  0
   -1.6142    2.7016    0.4284 C   0  0  0  0  0  0  0  0  0  0  0  0
   -2.0923    1.3630    0.6728 N   0  0  0  0  0  0  0  0  0  0  0  0
   -1.0527    0.8102    1.7443 C   0  0  1  0  0  0  0  0  0  0  0  0
   -1.6584   -0.7382    1.9627 C   0  0  0  0  0  0  0  0  0  0  0  0
   -2.9979   -0.7502    1.0257 C   0  0  2  0  0  0  0  0  0  0  0  0
   -3.3406   -2.2416    1.4243 C   0  0  0  0  0  0  0  0  0  0  0  0
   -2.0811   -1.0205   -0.5723 S   0  0  0  0  0  0  0  0  0  0  0  0
   -2.0669   -2.4719   -0.9095 O   0  0  0  0  0  0  0  0  0  0  0  0
   -2.8648   -0.3317   -1.6567 O   0  0  0  0  0  0  0  0  0  0  0  0
   -0.4657   -0.4334   -0.3664 C   0  0  0  0  0  0  0  0  0  0  0  0
    0.9669   -0.8536   -1.1861 S   0  0  0  0  0  0  0  0  0  0  0  0
    2.1081   -0.0377   -0.2617 C   0  0  0  0  0  0  0  0  0  0  0  0
    3.8894   -0.0142   -0.2577 S   0  0  0  0  0  0  0  0  0  0  0  0
    4.5437    0.4436   -1.7569 N   0  0  0  0  0  0  0  0  0  0  0  0
    4.4246    0.9264    0.7947 O   0  0  0  0  0  0  0  0  0  0  0  0
    4.4034   -1.4011    0.2272 O   0  0  0  0  0  0  0  0  0  0  0  0
    1.3087    0.5369    0.6882 C   0  0  0  0  0  0  0  0  0  0  0  0
    0.0310    0.3023    0.5729 C   0  0  0  0  0  0  0  0  0  0  0  0
  1  2  1  0
  2  3  1  0
  4  3  1  6
  4  5  1  0
  5  6  1  0
  6  7  1  1
  6  8  1  0
  8  9  2  0
  8 10  2  0
  8 11  1  0
 11 12  1  0
 12 13  1  0
 13 14  1  0
 14 15  1  0
 14 16  2  0
 14 17  2  0
 13 18  2  0
 18 19  1  0
 19  4  1  0
 19 11  2  0
M  END
>  <zinc_id>  (1) 
ZINC000001530621

>  <smiles>  (1) 
CCN[C@H]1C[C@H](C)S(=O)(=O)c2sc(S(N)(=O)=O)cc21

$$$$
