
     RDKit          3D

 15 15  0  0  0  0  0  0  0  0999 V2000
   -3.8452   -0.2737    0.8293 C   0  0  0  0  0  0  0  0  0  0  0  0
   -3.3279   -0.1285    0.3406 C   0  0  0  0  0  0  0  0  0  0  0  0
   -2.1541    0.3033   -0.3975 N   0  0  0  0  0  0  0  0  0  0  0  0
   -2.2728    1.7633   -0.4624 C   0  0  0  0  0  0  0  0  0  0  0  0
   -3.4887    2.0141   -1.3677 C   0  0  0  0  0  0  0  0  0  0  0  0
   -0.9491    0.1321    0.5904 C   0  0  1  0  0  0  0  0  0  0  0  0
   -1.1174   -1.5117    0.7205 C   0  0  0  0  0  0  0  0  0  0  0  0
    0.1818    0.0478   -0.5401 C   0  0  0  0  0  0  0  0  0  0  0  0
   -0.1223    0.1783   -1.7074 O   0  0  0  0  0  0  0  0  0  0  0  0
    1.5312   -0.1887   -0.0351 C   0  0  0  0  0  0  0  0  0  0  0  0
    2.5447   -0.2542   -0.9591 C   0  0  0  0  0  0  0  0  0  0  0  0
    3.8743   -0.4871   -0.5982 C   0  0  0  0  0  0  0  0  0  0  0  0
    4.1496   -0.6519    0.7274 C   0  0  0  0  0  0  0  0  0  0  0  0
    3.1579   -0.5879    1.6535 C   0  0  0  0  0  0  0  0  0  0  0  0
    1.8379   -0.3553    1.2868 C   0  0  0  0  0  0  0  0  0  0  0  0
  1  2  1  0
  2  3  1  0
  3  4  1  0
  4  5  1  0
  3  6  1  0
  6  7  1  6
  6  8  1  0
  8  9  2  0
  8 10  1  0
 10 11  2  0
 11 12  1  0
 12 13  2  0
 13 14  1  0
 14 15  2  0
 15 10  1  0
M  END
>  <zinc_id>  (1) 
ZINC000000000215

>  <smiles>  (1) 
CCN(CC)[C@@H](C)C(=O)c1ccccc1

$$$$
