
     RDKit          3D

 20 22  0  0  0  0  0  0  0  0999 V2000
   -3.6057    1.7583    0.9469 C   0  0  0  0  0  0  0  0  0  0  0  0
   -2.2773    1.5897    0.4285 N   0  0  0  0  0  0  0  0  0  0  0  0
   -1.8331    0.2509    0.2693 C   0  0  0  0  0  0  0  0  0  0  0  0
   -2.8364   -0.6862    0.3867 C   0  0  0  0  0  0  0  0  0  0  0  0
   -2.5981   -2.0382    0.2625 C   0  0  0  0  0  0  0  0  0  0  0  0
   -1.3070   -2.4475    0.0126 C   0  0  0  0  0  0  0  0  0  0  0  0
   -0.9388   -4.1664   -0.1566 Cl  0  0  0  0  0  0  0  0  0  0  0  0
   -0.3013   -1.5133   -0.1053 C   0  0  0  0  0  0  0  0  0  0  0  0
   -0.5374   -0.1564    0.0188 C   0  0  0  0  0  0  0  0  0  0  0  0
    0.6777    0.6489   -0.1429 C   0  0  0  0  0  0  0  0  0  0  0  0
    1.9246   -0.0651    0.0152 C   0  0  0  0  0  0  0  0  0  0  0  0
    3.1470    0.5510   -0.1069 C   0  0  0  0  0  0  0  0  0  0  0  0
    4.3361   -0.1624    0.0507 C   0  0  0  0  0  0  0  0  0  0  0  0
    4.3091   -1.5105    0.3344 C   0  0  0  0  0  0  0  0  0  0  0  0
    3.0847   -2.1256    0.4563 C   0  0  0  0  0  0  0  0  0  0  0  0
    1.9027   -1.4068    0.2976 C   0  0  0  0  0  0  0  0  0  0  0  0
    0.6893    1.9001   -0.4063 N   0  0  0  0  0  0  0  0  0  0  0  0
   -0.2910    2.9287   -0.6292 C   0  0  0  0  0  0  0  0  0  0  0  0
   -1.5346    2.7849    0.1244 C   0  0  0  0  0  0  0  0  0  0  0  0
   -2.0106    3.8658    0.5623 O   0  0  0  0  0  0  0  0  0  0  0  0
  1  2  1  0
  2  3  1  0
  3  4  2  0
  4  5  1  0
  5  6  2  0
  6  7  1  0
  6  8  1  0
  8  9  2  0
  9 10  1  0
 10 11  1  0
 11 12  2  0
 12 13  1  0
 13 14  2  0
 14 15  1  0
 15 16  2  0
 10 17  2  0
 17 18  1  0
 18 19  1  0
 19 20  2  0
 19  2  1  0
  9  3  1  0
 16 11  1  0
M  END
>  <zinc_id>  (1) 
ZINC000000006427

>  <smiles>  (1) 
CN1C(=O)CN=C(c2ccccc2)c2cc(Cl)ccc21

$$$$
