
     RDKit          3D

 31 35  0  0  0  0  0  0  0  0999 V2000
    2.7324   -2.1857    1.7738 C   0  0  0  0  0  0  0  0  0  0  0  0
    3.5609   -1.2422    1.1337 C   0  0  0  0  0  0  0  0  0  0  0  0
    4.8936   -1.1420    1.4286 N   0  0  0  0  0  0  0  0  0  0  0  0
    5.5966   -0.1991    0.7499 C   0  0  0  0  0  0  0  0  0  0  0  0
    5.1212    0.6051   -0.1423 N   0  0  0  0  0  0  0  0  0  0  0  0
    3.8126    0.5182   -0.4428 C   0  0  0  0  0  0  0  0  0  0  0  0
    3.3019    1.2768   -1.3026 O   0  0  0  0  0  0  0  0  0  0  0  0
    3.0027   -0.4077    0.1884 C   0  0  0  0  0  0  0  0  0  0  0  0
    1.5340   -0.5197   -0.1221 C   0  0  0  0  0  0  0  0  0  0  0  0
    0.7785    0.1670    1.0227 C   0  0  0  0  0  0  0  0  0  0  0  0
   -0.6281    0.0363    0.6945 N   0  0  0  0  0  0  0  0  0  0  0  0
   -0.8475    0.8553   -0.4803 C   0  0  0  0  0  0  0  0  0  0  0  0
   -1.5526    0.0524   -1.5779 C   0  0  0  0  0  0  0  0  0  0  0  0
   -2.7060   -0.5986   -0.9188 C   0  0  0  0  0  0  0  0  0  0  0  0
   -3.9268    0.1696   -0.8341 C   0  0  0  0  0  0  0  0  0  0  0  0
   -4.0897    1.3880   -1.3783 N   0  0  0  0  0  0  0  0  0  0  0  0
   -5.2941    1.7920   -1.1206 O   0  0  0  0  0  0  0  0  0  0  0  0
   -5.9625    0.9085   -0.4260 C   0  0  0  0  0  0  0  0  0  0  0  0
   -7.2403    0.8796    0.0755 C   0  0  0  0  0  0  0  0  0  0  0  0
   -7.6640   -0.2162    0.7832 C   0  0  0  0  0  0  0  0  0  0  0  0
   -8.9445   -0.2416    1.2843 F   0  0  0  0  0  0  0  0  0  0  0  0
   -6.8307   -1.3012    1.0059 C   0  0  0  0  0  0  0  0  0  0  0  0
   -5.5398   -1.2578    0.4919 C   0  0  0  0  0  0  0  0  0  0  0  0
   -5.0880   -0.1655   -0.2246 C   0  0  0  0  0  0  0  0  0  0  0  0
   -2.3949   -1.5605    0.1504 C   0  0  0  0  0  0  0  0  0  0  0  0
   -0.9148   -1.3538    0.5050 C   0  0  0  0  0  0  0  0  0  0  0  0
    5.9050    1.5801   -0.8269 C   0  0  0  0  0  0  0  0  0  0  0  0
    7.3011    1.0845   -1.0802 C   0  0  0  0  0  0  0  0  0  0  0  0
    7.6947   -0.1324   -0.3952 C   0  0  0  0  0  0  0  0  0  0  0  0
    7.1550   -0.1480    1.1596 C   0  0  1  0  0  0  0  0  0  0  0  0
    7.2342    1.3587    1.3651 O   0  0  0  0  0  0  0  0  0  0  0  0
  1  2  1  0
  2  3  1  0
  3  4  2  0
  4  5  1  0
  5  6  1  0
  6  7  2  0
  6  8  1  0
  8  9  1  0
  9 10  1  0
 10 11  1  0
 11 12  1  0
 12 13  1  0
 13 14  1  0
 14 15  1  0
 15 16  2  0
 16 17  1  0
 17 18  1  0
 18 19  2  0
 19 20  1  0
 20 21  1  0
 20 22  2  0
 22 23  1  0
 23 24  2  0
 14 25  1  0
 25 26  1  0
  5 27  1  0
 27 28  1  0
 28 29  1  0
 29 30  1  0
 30 31  1  6
  8  2  2  0
 26 11  1  0
 30  4  1  0
 24 15  1  0
 24 18  1  0
M  END
>  <zinc_id>  (1) 
ZINC000001481956

>  <smiles>  (1) 
Cc1nc2n(c(=O)c1CCN1CCC(c3noc4cc(F)ccc34)CC1)CCC[C@H]2O

$$$$
