
     RDKit          3D

 25 26  0  0  0  0  0  0  0  0999 V2000
    5.7925   -1.2563   -0.1102 C   0  0  0  0  0  0  0  0  0  0  0  0
    6.1182    0.1751   -0.0135 C   0  0  0  0  0  0  0  0  0  0  0  0
    5.9898    0.8007    1.3157 C   0  0  0  0  0  0  0  0  0  0  0  0
    5.1283    0.9767   -1.0401 C   0  0  2  0  0  0  0  0  0  0  0  0
    5.7263    2.3752   -0.6876 N   0  0  0  0  0  0  0  0  0  0  0  0
    3.8897    1.0690   -0.0949 C   0  0  0  0  0  0  0  0  0  0  0  0
    3.6074    1.9940    0.6272 O   0  0  0  0  0  0  0  0  0  0  0  0
    3.0821   -0.0331   -0.1300 O   0  0  0  0  0  0  0  0  0  0  0  0
    1.9017   -0.0953    0.6866 C   0  0  0  0  0  0  0  0  0  0  0  0
    1.0938    1.2027    0.1068 C   0  0  1  0  0  0  0  0  0  0  0  0
    0.5094    0.4312   -1.1935 C   0  0  0  0  0  0  0  0  0  0  0  0
    1.5166    0.4539   -2.1445 O   0  0  0  0  0  0  0  0  0  0  0  0
   -0.0833    1.0767    0.9753 O   0  0  0  0  0  0  0  0  0  0  0  0
   -0.8311    0.1463    1.0858 C   0  0  0  0  0  0  0  0  0  0  0  0
   -1.7119   -0.6799    0.4510 N   0  0  0  0  0  0  0  0  0  0  0  0
   -1.4591   -1.8723   -0.1205 C   0  0  0  0  0  0  0  0  0  0  0  0
   -2.5676   -2.4090   -0.6329 N   0  0  0  0  0  0  0  0  0  0  0  0
   -3.5860   -1.5747   -0.4086 C   0  0  0  0  0  0  0  0  0  0  0  0
   -3.0572   -0.5062    0.2613 C   0  0  0  0  0  0  0  0  0  0  0  0
   -3.8534    0.5200    0.6326 N   0  0  0  0  0  0  0  0  0  0  0  0
   -5.1681    0.4794    0.3369 C   0  0  0  0  0  0  0  0  0  0  0  0
   -6.0510    1.5579    0.7175 N   0  0  0  0  0  0  0  0  0  0  0  0
   -5.6818   -0.5766   -0.3233 N   0  0  0  0  0  0  0  0  0  0  0  0
   -4.9505   -1.6224   -0.7184 C   0  0  0  0  0  0  0  0  0  0  0  0
   -5.3547   -2.6330   -1.3320 O   0  0  0  0  0  0  0  0  0  0  0  0
  1  2  1  0
  2  3  1  0
  2  4  1  0
  4  5  1  1
  4  6  1  0
  6  7  2  0
  6  8  1  0
  8  9  1  0
 10  9  1  1
 10 11  1  0
 11 12  1  0
 10 13  1  0
 13 14  1  0
 14 15  1  0
 15 16  1  0
 16 17  2  0
 17 18  1  0
 18 19  2  0
 19 20  1  0
 20 21  2  0
 21 22  1  0
 21 23  1  0
 23 24  1  0
 24 25  2  0
 19 15  1  0
 24 18  1  0
M  END
>  <zinc_id>  (1) 
ZINC000001543916

>  <smiles>  (1) 
CC(C)[C@H](N)C(=O)OC[C@@H](CO)OCn1cnc2c(=O)[nH]c(N)nc21

$$$$
