
     RDKit          3D

 27 27  0  0  0  0  0  0  0  0999 V2000
   -3.9831    2.4684   -2.3269 C   0  0  0  0  0  0  0  0  0  0  0  0
   -5.3844    2.5491   -2.3640 C   0  0  0  0  0  0  0  0  0  0  0  0
   -6.3094    2.2681   -1.3243 C   0  0  0  0  0  0  0  0  0  0  0  0
   -6.5408    1.0451   -0.6338 C   0  0  0  0  0  0  0  0  0  0  0  0
   -5.5276    0.3362    0.1464 C   0  0  1  0  0  0  0  0  0  0  0  0
   -4.9499    1.1751    1.2826 C   0  0  0  0  0  0  0  0  0  0  0  0
   -6.0760   -0.8034    0.8222 O   0  0  0  0  0  0  0  0  0  0  0  0
   -4.4797   -0.2622   -0.7482 C   0  0  0  0  0  0  0  0  0  0  0  0
   -3.4818   -0.9704    0.1463 C   0  0  0  0  0  0  0  0  0  0  0  0
   -2.2465   -0.5427    0.0799 C   0  0  0  0  0  0  0  0  0  0  0  0
   -1.1293   -1.1796    0.9416 C   0  0  1  0  0  0  0  0  0  0  0  0
   -1.8761   -2.6670    1.1389 C   0  0  2  0  0  0  0  0  0  0  0  0
   -1.1337   -2.9637    2.4252 O   0  0  0  0  0  0  0  0  0  0  0  0
   -0.8651   -3.5531    0.2293 C   0  0  0  0  0  0  0  0  0  0  0  0
    0.3863   -2.8422    0.3325 C   0  0  0  0  0  0  0  0  0  0  0  0
    1.3616   -3.1895    0.8132 O   0  0  0  0  0  0  0  0  0  0  0  0
   -0.2003   -1.6315   -0.4014 C   0  0  2  0  0  0  0  0  0  0  0  0
    0.9441   -0.5501   -0.0286 C   0  0  0  0  0  0  0  0  0  0  0  0
    2.0255   -0.6306   -1.0406 C   0  0  0  0  0  0  0  0  0  0  0  0
    3.1473    0.3201   -0.8106 C   0  0  0  0  0  0  0  0  0  0  0  0
    3.8427    0.1202    0.5128 C   0  0  0  0  0  0  0  0  0  0  0  0
    4.9588    1.0922    0.7026 C   0  0  0  0  0  0  0  0  0  0  0  0
    5.9967    0.9339   -0.3937 C   0  0  0  0  0  0  0  0  0  0  0  0
    7.0910    1.9361   -0.1486 C   0  0  0  0  0  0  0  0  0  0  0  0
    7.0764    2.7298    0.8149 O   0  0  0  0  0  0  0  0  0  0  0  0
    8.1391    1.9467   -1.0510 O   0  0  0  0  0  0  0  0  0  0  0  0
    9.2142    2.8650   -0.8897 C   0  0  0  0  0  0  0  0  0  0  0  0
  1  2  1  0
  2  3  1  0
  3  4  1  0
  4  5  1  0
  5  6  1  1
  5  7  1  0
  5  8  1  0
  8  9  1  0
  9 10  2  0
 11 10  1  6
 11 12  1  0
 12 13  1  1
 12 14  1  0
 14 15  1  0
 15 16  2  0
 15 17  1  0
 17 18  1  1
 18 19  1  0
 19 20  1  0
 20 21  1  0
 21 22  1  0
 22 23  1  0
 23 24  1  0
 24 25  2  0
 24 26  1  0
 26 27  1  0
 17 11  1  0
M  END
>  <zinc_id>  (1) 
ZINC000003831138

>  <smiles>  (1) 
CCCC[C@@](C)(O)C/C=C/[C@H]1[C@H](O)CC(=O)[C@@H]1CCCCCCC(=O)OC

$$$$
