
     RDKit          3D

 10  9  0  0  0  0  0  0  0  0999 V2000
   -2.9979   -1.0478   -0.7928 C   0  0  0  0  0  0  0  0  0  0  0  0
   -2.1977   -0.0111   -0.1627 N   0  0  0  0  0  0  0  0  0  0  0  0
   -2.8517    1.2685   -0.3509 C   0  0  0  0  0  0  0  0  0  0  0  0
   -1.9283   -0.2961    1.2308 C   0  0  0  0  0  0  0  0  0  0  0  0
   -0.9324    0.0261   -0.8850 C   0  0  0  0  0  0  0  0  0  0  0  0
    0.2207   -0.0086    0.0981 C   0  0  0  0  0  0  0  0  0  0  0  0
    1.4128    0.0311   -0.6938 O   0  0  0  0  0  0  0  0  0  0  0  0
    2.6705    0.0151   -0.1433 C   0  0  0  0  0  0  0  0  0  0  0  0
    3.7840    0.0590   -1.0441 N   0  0  0  0  0  0  0  0  0  0  0  0
    2.8198   -0.0362    1.1049 O   0  0  0  0  0  0  0  0  0  0  0  0
  1  2  1  0
  2  3  1  0
  2  4  1  0
  2  5  1  0
  5  6  1  0
  6  7  1  0
  7  8  1  0
  8  9  1  0
  8 10  2  0
M  CHG  1   2   1
M  END
>  <zinc_id>  (1) 
ZINC000003079342

>  <smiles>  (1) 
C[N+](C)(C)CCOC(N)=O

$$$$
