
     RDKit          3D

 28 30  0  0  0  0  0  0  0  0999 V2000
    8.1217    1.0632    1.0677 O   0  0  0  0  0  0  0  0  0  0  0  0
    7.0681    0.3878    1.1456 C   0  0  0  0  0  0  0  0  0  0  0  0
    7.0880   -0.7669    1.9084 O   0  0  0  0  0  0  0  0  0  0  0  0
    5.8825    0.8438    0.4372 C   0  0  0  0  0  0  0  0  0  0  0  0
    4.6834    0.1600    0.4703 C   0  0  0  0  0  0  0  0  0  0  0  0
    3.5560    0.5830   -0.1964 C   0  0  0  0  0  0  0  0  0  0  0  0
    2.3161   -0.1353   -0.1548 N   0  0  0  0  0  0  0  0  0  0  0  0
    1.2189    0.4067    0.1039 N   0  0  0  0  0  0  0  0  0  0  0  0
   -0.0316   -0.2659    0.1556 C   0  0  0  0  0  0  0  0  0  0  0  0
   -0.8664   -0.4163   -0.9088 C   0  0  0  0  0  0  0  0  0  0  0  0
   -2.0647   -1.0866   -0.7646 C   0  0  0  0  0  0  0  0  0  0  0  0
   -2.4729   -1.6273    0.4345 C   0  0  0  0  0  0  0  0  0  0  0  0
   -3.9885   -2.4753    0.6179 S   0  0  0  0  0  0  0  0  0  0  0  0
   -3.7898   -3.4514    1.7690 O   0  0  0  0  0  0  0  0  0  0  0  0
   -4.3542   -3.2102   -0.6388 O   0  0  0  0  0  0  0  0  0  0  0  0
   -5.2325   -1.3990    1.1004 N   0  0  0  0  0  0  0  0  0  0  0  0
   -5.6783   -0.2929    0.3448 C   0  0  0  0  0  0  0  0  0  0  0  0
   -6.6828    0.5357    0.7918 C   0  0  0  0  0  0  0  0  0  0  0  0
   -7.1013    1.6245    0.0174 C   0  0  0  0  0  0  0  0  0  0  0  0
   -6.4965    1.8651   -1.2071 C   0  0  0  0  0  0  0  0  0  0  0  0
   -5.4961    1.0019   -1.6031 C   0  0  0  0  0  0  0  0  0  0  0  0
   -5.1009   -0.0506   -0.8403 N   0  0  0  0  0  0  0  0  0  0  0  0
   -1.6092   -1.4646    1.5099 C   0  0  0  0  0  0  0  0  0  0  0  0
   -0.4145   -0.7977    1.3709 C   0  0  0  0  0  0  0  0  0  0  0  0
    3.6254    1.7470   -0.9344 C   0  0  0  0  0  0  0  0  0  0  0  0
    4.8093    2.4771   -1.0031 C   0  0  0  0  0  0  0  0  0  0  0  0
    5.9112    2.0013   -0.3106 C   0  0  0  0  0  0  0  0  0  0  0  0
    7.0996    2.7429   -0.3853 O   0  0  0  0  0  0  0  0  0  0  0  0
  1  2  2  0
  2  3  1  0
  2  4  1  0
  4  5  2  0
  5  6  1  0
  6  7  1  0
  7  8  2  0
  8  9  1  0
  9 10  2  0
 10 11  1  0
 11 12  2  0
 12 13  1  0
 13 14  2  0
 13 15  2  0
 13 16  1  0
 16 17  1  0
 17 18  2  0
 18 19  1  0
 19 20  2  0
 20 21  1  0
 21 22  2  0
 12 23  1  0
 23 24  2  0
  6 25  2  0
 25 26  1  0
 26 27  2  0
 27 28  1  0
 27  4  1  0
 24  9  1  0
 22 17  1  0
M  END
>  <zinc_id>  (1) 
ZINC000003831490

>  <smiles>  (1) 
O=C(O)c1cc(/N=N/c2ccc(S(=O)(=O)Nc3ccccn3)cc2)ccc1O

$$$$
