
     RDKit          3D

 28 30  0  0  0  0  0  0  0  0999 V2000
   -2.4916   -1.6557    0.3563 N   0  0  0  0  0  0  0  0  0  0  0  0
   -1.8663   -0.1638    0.5765 C   0  0  1  0  0  0  0  0  0  0  0  0
   -0.4116   -0.6538   -0.1478 C   0  0  0  0  0  0  0  0  0  0  0  0
    0.4152    0.5412    0.0133 C   0  0  0  0  0  0  0  0  0  0  0  0
    0.0219    1.5201    0.7658 O   0  0  0  0  0  0  0  0  0  0  0  0
    1.6441    0.7099   -0.5990 N   0  0  0  0  0  0  0  0  0  0  0  0
    2.3136   -0.1265   -1.5510 C   0  0  0  0  0  0  0  0  0  0  0  0
    3.8293   -0.1331   -1.3198 C   0  0  0  0  0  0  0  0  0  0  0  0
    4.1827    0.2418    0.0359 N   0  0  0  0  0  0  0  0  0  0  0  0
    3.5272    1.2172    0.6958 C   0  0  0  0  0  0  0  0  0  0  0  0
    3.9762    1.3071    1.9153 N   0  0  0  0  0  0  0  0  0  0  0  0
    4.9491    0.3709    2.0395 N   0  0  0  0  0  0  0  0  0  0  0  0
    5.0643   -0.2741    0.8645 C   0  0  0  0  0  0  0  0  0  0  0  0
    6.0999   -1.3567    0.6088 C   0  0  0  0  0  0  0  0  0  0  0  0
    7.0813   -0.9101   -0.2974 F   0  0  0  0  0  0  0  0  0  0  0  0
    5.5344   -2.4917    0.0957 F   0  0  0  0  0  0  0  0  0  0  0  0
    6.7697   -1.6461    1.7514 F   0  0  0  0  0  0  0  0  0  0  0  0
    2.4746    1.8855   -0.1850 C   0  0  0  0  0  0  0  0  0  0  0  0
   -2.5068    0.2905   -0.9071 C   0  0  0  0  0  0  0  0  0  0  0  0
   -3.9471    0.0981   -0.7624 C   0  0  0  0  0  0  0  0  0  0  0  0
   -4.5341   -1.1186   -1.0694 C   0  0  0  0  0  0  0  0  0  0  0  0
   -5.8474   -1.3727   -0.8868 C   0  0  0  0  0  0  0  0  0  0  0  0
   -6.4216   -2.5534   -1.1807 F   0  0  0  0  0  0  0  0  0  0  0  0
   -6.7086   -0.3671   -0.3588 C   0  0  0  0  0  0  0  0  0  0  0  0
   -8.0074   -0.6641   -0.1923 F   0  0  0  0  0  0  0  0  0  0  0  0
   -6.1052    0.8258   -0.0780 C   0  0  0  0  0  0  0  0  0  0  0  0
   -4.7476    1.0841   -0.2597 C   0  0  0  0  0  0  0  0  0  0  0  0
   -4.2884    2.3394    0.0765 F   0  0  0  0  0  0  0  0  0  0  0  0
  2  1  1  6
  2  3  1  0
  3  4  1  0
  4  5  2  0
  4  6  1  0
  6  7  1  0
  7  8  1  0
  8  9  1  0
  9 10  1  0
 10 11  2  0
 11 12  1  0
 12 13  2  0
 13 14  1  0
 14 15  1  0
 14 16  1  0
 14 17  1  0
 10 18  1  0
  2 19  1  0
 19 20  1  0
 20 21  2  0
 21 22  1  0
 22 23  1  0
 22 24  2  0
 24 25  1  0
 24 26  1  0
 26 27  2  0
 27 28  1  0
 18  6  1  0
 27 20  1  0
 13  9  1  0
M  END
>  <zinc_id>  (1) 
ZINC000001489478

>  <smiles>  (1) 
N[C@@H](CC(=O)N1CCn2c(nnc2C(F)(F)F)C1)Cc1cc(F)c(F)cc1F

$$$$
