
     RDKit          3D

 14 15  0  0  0  0  0  0  0  0999 V2000
   -0.9597    2.8192    0.4654 Cl  0  0  0  0  0  0  0  0  0  0  0  0
   -1.5889    1.1892    0.4142 C   0  0  0  0  0  0  0  0  0  0  0  0
   -2.7814    0.8323    1.0033 C   0  0  0  0  0  0  0  0  0  0  0  0
   -3.2330   -0.4711    0.9333 C   0  0  0  0  0  0  0  0  0  0  0  0
   -2.5124   -1.4314    0.2821 C   0  0  0  0  0  0  0  0  0  0  0  0
   -1.3148   -1.1050   -0.3179 C   0  0  0  0  0  0  0  0  0  0  0  0
   -0.3663   -2.3247   -1.1727 Cl  0  0  0  0  0  0  0  0  0  0  0  0
   -0.8761    0.1927   -0.2417 C   0  0  0  0  0  0  0  0  0  0  0  0
    0.3519    0.5762   -0.8466 N   0  0  0  0  0  0  0  0  0  0  0  0
    1.5114    0.1380   -0.4977 C   0  0  0  0  0  0  0  0  0  0  0  0
    2.7180    0.5448   -1.1264 N   0  0  0  0  0  0  0  0  0  0  0  0
    3.7952    0.4713   -0.1530 C   0  0  0  0  0  0  0  0  0  0  0  0
    3.3412   -0.6531    0.7494 C   0  0  0  0  0  0  0  0  0  0  0  0
    1.9148   -0.7783    0.5083 N   0  0  0  0  0  0  0  0  0  0  0  0
  1  2  1  0
  2  3  2  0
  3  4  1  0
  4  5  2  0
  5  6  1  0
  6  7  1  0
  6  8  2  0
  8  9  1  0
  9 10  2  3
 10 11  1  0
 11 12  1  0
 12 13  1  0
 13 14  1  0
  8  2  1  0
 14 10  1  0
M  END
>  <zinc_id>  (1) 
ZINC000000896484

>  <smiles>  (1) 
Clc1cccc(Cl)c1N=C1NCCN1

$$$$
