
     RDKit          3D

 27 30  0  0  0  0  0  0  0  0999 V2000
    4.0519   -4.0614    0.5470 C   0  0  0  0  0  0  0  0  0  0  0  0
    3.8957   -3.0448    0.2261 N   0  0  0  0  0  0  0  0  0  0  0  0
    4.9879   -2.1088    0.0730 C   0  0  0  0  0  0  0  0  0  0  0  0
    4.7225   -0.7612    0.6720 C   0  0  0  0  0  0  0  0  0  0  0  0
    3.2728   -0.4119    0.8101 C   0  0  0  0  0  0  0  0  0  0  0  0
    2.7128   -0.4318   -0.7150 C   0  0  2  0  0  0  0  0  0  0  0  0
    1.5143    0.4585   -0.4720 N   0  0  0  0  0  0  0  0  0  0  0  0
    0.4359    0.2118   -1.1636 N   0  0  0  0  0  0  0  0  0  0  0  0
   -0.6873    0.9692   -1.0166 C   0  0  0  0  0  0  0  0  0  0  0  0
   -1.9231    0.6746   -1.7690 C   0  0  0  0  0  0  0  0  0  0  0  0
   -2.8860   -0.1127   -0.9878 C   0  0  0  0  0  0  0  0  0  0  0  0
   -3.8697    0.4159   -0.2316 C   0  0  0  0  0  0  0  0  0  0  0  0
   -4.7272   -0.3698    0.4779 C   0  0  0  0  0  0  0  0  0  0  0  0
   -4.6291   -1.7657    0.4571 C   0  0  0  0  0  0  0  0  0  0  0  0
   -5.7326   -2.7651    1.3752 Cl  0  0  0  0  0  0  0  0  0  0  0  0
   -3.6195   -2.2971   -0.3198 C   0  0  0  0  0  0  0  0  0  0  0  0
   -2.7524   -1.5053   -1.0373 C   0  0  0  0  0  0  0  0  0  0  0  0
   -0.6817    2.0142   -0.1227 C   0  0  0  0  0  0  0  0  0  0  0  0
   -1.7741    2.8493    0.0889 C   0  0  0  0  0  0  0  0  0  0  0  0
   -1.7169    3.8879    0.9873 C   0  0  0  0  0  0  0  0  0  0  0  0
   -0.5802    4.1372    1.7074 C   0  0  0  0  0  0  0  0  0  0  0  0
    0.5300    3.3124    1.5124 C   0  0  0  0  0  0  0  0  0  0  0  0
    0.4626    2.2847    0.6179 C   0  0  0  0  0  0  0  0  0  0  0  0
    1.5583    1.4501    0.3942 C   0  0  0  0  0  0  0  0  0  0  0  0
    2.6169    1.6845    1.0665 O   0  0  0  0  0  0  0  0  0  0  0  0
    1.8937   -1.8455   -0.4937 C   0  0  0  0  0  0  0  0  0  0  0  0
    2.9245   -2.8692   -0.8591 C   0  0  0  0  0  0  0  0  0  0  0  0
  1  2  1  0
  2  3  1  0
  3  4  1  0
  4  5  1  0
  5  6  1  0
  6  7  1  1
  7  8  1  0
  8  9  2  0
  9 10  1  0
 10 11  1  0
 11 12  2  0
 12 13  1  0
 13 14  2  0
 14 15  1  0
 14 16  1  0
 16 17  2  0
  9 18  1  0
 18 19  2  0
 19 20  1  0
 20 21  2  0
 21 22  1  0
 22 23  2  0
 23 24  1  0
 24 25  2  0
  6 26  1  0
 26 27  1  0
 27  2  1  0
 24  7  1  0
 17 11  1  0
 23 18  1  0
M  END
>  <zinc_id>  (1) 
ZINC000000897240

>  <smiles>  (1) 
CN1CCC[C@H](n2nc(Cc3ccc(Cl)cc3)c3ccccc3c2=O)CC1

$$$$
