
     RDKit          3D

 22 24  0  0  0  0  0  0  0  0999 V2000
   -5.2684    3.4824    1.1787 N   0  0  0  0  0  0  0  0  0  0  0  0
   -4.3808    2.7443    1.0952 C   0  0  0  0  0  0  0  0  0  0  0  0
   -3.2715    1.8166    1.0012 C   0  0  0  0  0  0  0  0  0  0  0  0
   -2.3770    1.6723    2.0329 C   0  0  0  0  0  0  0  0  0  0  0  0
   -1.3134    0.8050    1.9835 C   0  0  0  0  0  0  0  0  0  0  0  0
   -1.1336    0.0473    0.8541 C   0  0  0  0  0  0  0  0  0  0  0  0
    0.0135   -0.8812    0.8134 C   0  0  0  0  0  0  0  0  0  0  0  0
    1.2395   -0.2888    0.2700 C   0  0  0  0  0  0  0  0  0  0  0  0
    2.1104    0.3298    1.1597 C   0  0  0  0  0  0  0  0  0  0  0  0
    3.2839    0.9078    0.7100 C   0  0  0  0  0  0  0  0  0  0  0  0
    3.6361    0.8955   -0.6233 C   0  0  0  0  0  0  0  0  0  0  0  0
    4.8614    1.5017   -1.0759 C   0  0  0  0  0  0  0  0  0  0  0  0
    5.8517    2.0105   -1.4397 N   0  0  0  0  0  0  0  0  0  0  0  0
    2.7668    0.2783   -1.5103 C   0  0  0  0  0  0  0  0  0  0  0  0
    1.5996   -0.2944   -1.0486 C   0  0  0  0  0  0  0  0  0  0  0  0
   -0.3096   -2.1712    0.2879 N   0  0  0  0  0  0  0  0  0  0  0  0
    0.4243   -3.2806    0.5233 C   0  0  0  0  0  0  0  0  0  0  0  0
   -0.1106   -4.3359   -0.0904 N   0  0  0  0  0  0  0  0  0  0  0  0
   -1.2084   -3.8960   -0.7317 C   0  0  0  0  0  0  0  0  0  0  0  0
   -1.3060   -2.5774   -0.4853 N   0  0  0  0  0  0  0  0  0  0  0  0
   -2.0180    0.1831   -0.1786 C   0  0  0  0  0  0  0  0  0  0  0  0
   -3.0896    1.0506   -0.1404 C   0  0  0  0  0  0  0  0  0  0  0  0
  1  2  3  0
  2  3  1  0
  3  4  2  0
  4  5  1  0
  5  6  2  0
  6  7  1  0
  7  8  1  0
  8  9  2  0
  9 10  1  0
 10 11  2  0
 11 12  1  0
 12 13  3  0
 11 14  1  0
 14 15  2  0
  7 16  1  0
 16 17  1  0
 17 18  2  0
 18 19  1  0
 19 20  2  0
  6 21  1  0
 21 22  2  0
 22  3  1  0
 15  8  1  0
 20 16  1  0
M  END
>  <zinc_id>  (1) 
ZINC000003778874

>  <smiles>  (1) 
N#Cc1ccc(C(c2ccc(C#N)cc2)n2cncn2)cc1

$$$$
