
     RDKit          3D

 25 26  0  0  0  0  0  0  0  0999 V2000
    7.9681    2.3930   -0.8315 C   0  0  0  0  0  0  0  0  0  0  0  0
    7.6465    1.1817   -0.2552 O   0  0  0  0  0  0  0  0  0  0  0  0
    6.2792    0.8567   -0.0370 C   0  0  0  0  0  0  0  0  0  0  0  0
    5.2747    1.6727   -0.3552 C   0  0  0  0  0  0  0  0  0  0  0  0
    3.9168    1.4415   -0.1542 C   0  0  0  0  0  0  0  0  0  0  0  0
    3.6132    0.2011    0.4465 C   0  0  0  0  0  0  0  0  0  0  0  0
    2.2102   -0.1091    0.7838 C   0  0  0  0  0  0  0  0  0  0  0  0
    1.5512   -0.9281   -0.4632 C   0  0  1  0  0  0  0  0  0  0  0  0
    2.5967   -2.1945   -0.3595 C   0  0  0  0  0  0  0  0  0  0  0  0
    0.4979   -1.5957    0.5078 N   0  0  0  0  0  0  0  0  0  0  0  0
   -0.7503   -1.6690   -0.0410 C   0  0  0  0  0  0  0  0  0  0  0  0
   -1.3966   -0.2024   -0.3276 C   0  0  2  0  0  0  0  0  0  0  0  0
   -1.2937    0.3756    1.0775 O   0  0  0  0  0  0  0  0  0  0  0  0
   -2.9278   -0.6254   -0.1060 C   0  0  0  0  0  0  0  0  0  0  0  0
   -3.2731   -1.9147    0.0327 C   0  0  0  0  0  0  0  0  0  0  0  0
   -4.6381   -2.2100    0.2103 C   0  0  0  0  0  0  0  0  0  0  0  0
   -5.5665   -1.1754    0.2337 C   0  0  0  0  0  0  0  0  0  0  0  0
   -6.8968   -1.5406    0.4056 O   0  0  0  0  0  0  0  0  0  0  0  0
   -5.1495    0.1111    0.0822 C   0  0  0  0  0  0  0  0  0  0  0  0
   -6.0859    1.1527    0.0874 N   0  0  0  0  0  0  0  0  0  0  0  0
   -5.7588    2.5114   -0.1013 C   0  0  0  0  0  0  0  0  0  0  0  0
   -4.5690    2.8636   -0.2810 O   0  0  0  0  0  0  0  0  0  0  0  0
   -3.8244    0.4229   -0.0920 C   0  0  0  0  0  0  0  0  0  0  0  0
    4.5962   -0.6346    0.7661 C   0  0  0  0  0  0  0  0  0  0  0  0
    5.9799   -0.3844    0.5554 C   0  0  0  0  0  0  0  0  0  0  0  0
  1  2  1  0
  2  3  1  0
  3  4  2  0
  4  5  1  0
  5  6  2  0
  6  7  1  0
  7  8  1  0
  8  9  1  1
  8 10  1  0
 10 11  1  0
 11 12  1  0
 12 13  1  1
 12 14  1  0
 14 15  2  0
 15 16  1  0
 16 17  2  0
 17 18  1  0
 17 19  1  0
 19 20  1  0
 20 21  1  0
 21 22  2  0
 19 23  2  0
  6 24  1  0
 24 25  2  0
 25  3  1  0
 23 14  1  0
M  END
>  <zinc_id>  (1) 
ZINC000002599970

>  <smiles>  (1) 
COc1ccc(C[C@@H](C)NC[C@H](O)c2ccc(O)c(NC=O)c2)cc1

$$$$
