
     RDKit          3D

 16 16  0  0  0  0  0  0  0  0999 V2000
    3.2051   -0.2221    2.2329 N   0  0  0  0  0  0  0  0  0  0  0  0
    2.9841   -0.5249    0.5375 S   0  0  0  0  0  0  0  0  0  0  0  0
    2.9876   -2.0038    0.2836 O   0  0  0  0  0  0  0  0  0  0  0  0
    4.0551    0.1901   -0.2218 O   0  0  0  0  0  0  0  0  0  0  0  0
    1.3844    0.0900    0.1284 C   0  0  0  0  0  0  0  0  0  0  0  0
    1.1903    1.3961   -0.2894 C   0  0  0  0  0  0  0  0  0  0  0  0
   -0.0476    1.8979   -0.6138 C   0  0  0  0  0  0  0  0  0  0  0  0
   -0.2716    3.5672   -1.1444 Cl  0  0  0  0  0  0  0  0  0  0  0  0
   -1.1354    1.0512   -0.5139 C   0  0  0  0  0  0  0  0  0  0  0  0
   -2.7113    1.6764   -0.9228 Cl  0  0  0  0  0  0  0  0  0  0  0  0
   -1.0072   -0.2676   -0.1016 C   0  0  0  0  0  0  0  0  0  0  0  0
   -2.4182   -1.3154    0.0128 S   0  0  0  0  0  0  0  0  0  0  0  0
   -3.5072   -0.6214    1.1346 N   0  0  0  0  0  0  0  0  0  0  0  0
   -1.9456   -2.6289    0.5904 O   0  0  0  0  0  0  0  0  0  0  0  0
   -3.0227   -1.5771   -1.3210 O   0  0  0  0  0  0  0  0  0  0  0  0
    0.2605   -0.7077    0.2085 C   0  0  0  0  0  0  0  0  0  0  0  0
  1  2  1  0
  2  3  2  0
  2  4  2  0
  2  5  1  0
  5  6  2  0
  6  7  1  0
  7  8  1  0
  7  9  2  0
  9 10  1  0
  9 11  1  0
 11 12  1  0
 12 13  1  0
 12 14  2  0
 12 15  2  0
 11 16  2  0
 16  5  1  0
M  END
>  <zinc_id>  (1) 
ZINC000000896918

>  <smiles>  (1) 
NS(=O)(=O)c1cc(Cl)c(Cl)c(S(N)(=O)=O)c1

$$$$
