
     RDKit          3D

 17 17  0  0  0  0  0  0  0  0999 V2000
   -2.4463   -3.9671    0.3197 N   0  0  0  0  0  0  0  0  0  0  0  0
   -2.2330   -2.5609    0.2666 C   0  0  0  0  0  0  0  0  0  0  0  0
   -2.8289   -1.7845   -0.4929 O   0  0  0  0  0  0  0  0  0  0  0  0
   -1.2855   -2.0274    1.1330 O   0  0  0  0  0  0  0  0  0  0  0  0
   -1.0177   -0.6470    1.1406 C   0  0  0  0  0  0  0  0  0  0  0  0
   -0.5261   -0.1547   -0.1986 C   0  0  0  0  0  0  0  0  0  0  0  0
    0.7333   -0.8086   -0.6544 C   0  0  0  0  0  0  0  0  0  0  0  0
    1.8022   -0.5902    0.2595 O   0  0  0  0  0  0  0  0  0  0  0  0
    3.0483   -1.1041    0.0324 C   0  0  0  0  0  0  0  0  0  0  0  0
    4.1650   -0.9221    0.9096 N   0  0  0  0  0  0  0  0  0  0  0  0
    3.2584   -1.7892   -1.0124 O   0  0  0  0  0  0  0  0  0  0  0  0
   -0.4909    1.3152   -0.2234 C   0  0  0  0  0  0  0  0  0  0  0  0
   -0.0986    1.9761   -1.3719 C   0  0  0  0  0  0  0  0  0  0  0  0
   -0.0537    3.3555   -1.4310 C   0  0  0  0  0  0  0  0  0  0  0  0
   -0.3995    4.1297   -0.3432 C   0  0  0  0  0  0  0  0  0  0  0  0
   -0.7927    3.4786    0.8088 C   0  0  0  0  0  0  0  0  0  0  0  0
   -0.8342    2.1007    0.8576 C   0  0  0  0  0  0  0  0  0  0  0  0
  1  2  1  0
  2  3  2  0
  2  4  1  0
  4  5  1  0
  5  6  1  0
  6  7  1  0
  7  8  1  0
  8  9  1  0
  9 10  1  0
  9 11  2  0
  6 12  1  0
 12 13  2  0
 13 14  1  0
 14 15  2  0
 15 16  1  0
 16 17  2  0
 17 12  1  0
M  END
>  <zinc_id>  (1) 
ZINC000001530803

>  <smiles>  (1) 
NC(=O)OCC(COC(N)=O)c1ccccc1

$$$$
