
     RDKit          3D

 17 18  0  0  0  0  0  0  0  0999 V2000
    3.2841    1.3963   -0.9966 C   0  0  0  0  0  0  0  0  0  0  0  0
    3.8150    0.5816    0.3346 C   0  0  2  0  0  0  0  0  0  0  0  0
    4.9289   -0.1204   -0.4343 O   0  0  0  0  0  0  0  0  0  0  0  0
    2.7620   -0.7937    0.2422 C   0  0  2  0  0  0  0  0  0  0  0  0
    2.6682   -0.9281   -1.2412 O   0  0  0  0  0  0  0  0  0  0  0  0
    1.3894    0.2481    0.3059 C   0  0  2  0  0  0  0  0  0  0  0  0
    1.0026   -0.1731    1.8542 C   0  0  0  0  0  0  0  0  0  0  0  0
   -0.2828    0.5407    1.9803 N   0  0  0  0  0  0  0  0  0  0  0  0
   -1.3001    0.3043    1.0110 C   0  0  0  0  0  0  0  0  0  0  0  0
   -2.5730    0.7011    1.1472 N   0  0  0  0  0  0  0  0  0  0  0  0
   -3.5368    0.4818    0.2382 C   0  0  0  0  0  0  0  0  0  0  0  0
   -4.8904    0.9438    0.4610 N   0  0  0  0  0  0  0  0  0  0  0  0
   -3.2102   -0.1780   -0.8834 N   0  0  0  0  0  0  0  0  0  0  0  0
   -1.9422   -0.5923   -1.0560 C   0  0  0  0  0  0  0  0  0  0  0  0
   -1.5794   -1.2211   -2.0990 O   0  0  0  0  0  0  0  0  0  0  0  0
   -0.9388   -0.3759   -0.1327 C   0  0  0  0  0  0  0  0  0  0  0  0
    0.4035   -0.8150   -0.3165 N   0  0  0  0  0  0  0  0  0  0  0  0
  2  1  1  6
  2  3  1  0
  2  4  1  0
  4  5  1  6
  4  6  1  0
  6  7  1  1
  7  8  1  0
  8  9  1  0
  9 10  1  0
 10 11  1  0
 11 12  1  0
 11 13  2  0
 13 14  1  0
 14 15  2  0
 14 16  1  0
 16 17  1  0
 17  6  1  0
 16  9  2  0
M  END
>  <zinc_id>  (1) 
ZINC000002539827

>  <smiles>  (1) 
C[C@H](O)[C@H](O)[C@@H]1CNc2[nH]c(N)nc(=O)c2N1

$$$$
