
     RDKit          3D

  7  7  0  0  0  0  0  0  0  0999 V2000
    2.4236   -0.0496    0.0164 N   0  0  0  0  0  0  0  0  0  0  0  0
    0.9823   -0.0117    0.0083 C   0  0  0  0  0  0  0  0  0  0  0  0
    0.3160    1.1704    0.2318 C   0  0  0  0  0  0  0  0  0  0  0  0
   -1.0624    1.1532    0.2136 C   0  0  0  0  0  0  0  0  0  0  0  0
   -1.7563    0.0266   -0.0137 N   0  0  0  0  0  0  0  0  0  0  0  0
   -1.1392   -1.1431   -0.2353 C   0  0  0  0  0  0  0  0  0  0  0  0
    0.2360   -1.1458   -0.2210 C   0  0  0  0  0  0  0  0  0  0  0  0
  1  2  1  0
  2  3  2  0
  3  4  1  0
  4  5  2  0
  5  6  1  0
  6  7  2  0
  7  2  1  0
M  END
>  <zinc_id>  (1) 
ZINC000000599985

>  <smiles>  (1) 
Nc1ccncc1

$$$$
