
     RDKit          3D

 22 22  0  0  0  0  0  0  0  0999 V2000
   -4.1307    3.2209    1.3653 C   0  0  0  0  0  0  0  0  0  0  0  0
   -4.5578    1.9068    1.1440 O   0  0  0  0  0  0  0  0  0  0  0  0
   -3.9236    1.0640    0.2452 C   0  0  0  0  0  0  0  0  0  0  0  0
   -2.8438    1.4035   -0.5064 C   0  0  0  0  0  0  0  0  0  0  0  0
   -2.2251    0.5287   -1.4067 C   0  0  0  0  0  0  0  0  0  0  0  0
   -1.0655    1.0636   -2.1440 C   0  0  0  0  0  0  0  0  0  0  0  0
    0.2090    0.7636   -1.5787 N   0  0  0  0  0  0  0  0  0  0  0  0
    0.8199   -0.4885   -1.6903 C   0  0  0  0  0  0  0  0  0  0  0  0
    0.1806   -1.3879   -2.3355 O   0  0  0  0  0  0  0  0  0  0  0  0
    2.1263   -0.8735   -1.1390 C   0  0  0  0  0  0  0  0  0  0  0  0
    2.5214   -2.2736   -1.4305 C   0  0  0  0  0  0  0  0  0  0  0  0
    3.8509   -2.6057   -0.8525 C   0  0  0  0  0  0  0  0  0  0  0  0
    3.9422   -2.4881    0.6384 C   0  0  0  0  0  0  0  0  0  0  0  0
    3.6526   -1.0987    1.0473 C   0  0  0  0  0  0  0  0  0  0  0  0
    4.5192   -0.3329    1.7031 C   0  0  0  0  0  0  0  0  0  0  0  0
    4.1505    1.0632    2.0819 C   0  0  0  0  0  0  0  0  0  0  0  0
    4.2358    1.2031    3.5901 C   0  0  0  0  0  0  0  0  0  0  0  0
    5.1486    1.9772    1.4065 C   0  0  0  0  0  0  0  0  0  0  0  0
   -2.7453   -0.7241   -1.5223 C   0  0  0  0  0  0  0  0  0  0  0  0
   -3.8464   -1.0887   -0.7639 C   0  0  0  0  0  0  0  0  0  0  0  0
   -4.4589   -0.2204    0.1279 C   0  0  0  0  0  0  0  0  0  0  0  0
   -5.5598   -0.6125    0.8738 O   0  0  0  0  0  0  0  0  0  0  0  0
  1  2  1  0
  2  3  1  0
  3  4  2  0
  4  5  1  0
  5  6  1  0
  6  7  1  0
  7  8  1  0
  8  9  2  0
  8 10  1  0
 10 11  1  0
 11 12  1  0
 12 13  1  0
 13 14  1  0
 14 15  2  0
 15 16  1  0
 16 17  1  0
 16 18  1  0
  5 19  2  0
 19 20  1  0
 20 21  2  0
 21 22  1  0
 21  3  1  0
M  END
>  <zinc_id>  (1) 
ZINC000001530575

>  <smiles>  (1) 
COc1cc(CNC(=O)CCCC/C=C/C(C)C)ccc1O

$$$$
