
     RDKit          3D

 33 34  0  0  0  0  0  0  0  0999 V2000
    8.1304   -3.3537   -1.1414 C   0  0  0  0  0  0  0  0  0  0  0  0
    7.9962   -2.1587   -0.7336 O   0  0  0  0  0  0  0  0  0  0  0  0
    6.8496   -1.4055   -0.7745 C   0  0  0  0  0  0  0  0  0  0  0  0
    5.6397   -1.8982   -1.2916 C   0  0  0  0  0  0  0  0  0  0  0  0
    4.5215   -1.0800   -1.2981 C   0  0  0  0  0  0  0  0  0  0  0  0
    4.6132    0.1945   -0.7990 C   0  0  0  0  0  0  0  0  0  0  0  0
    3.3955    1.0629   -0.7901 C   0  0  0  0  0  0  0  0  0  0  0  0
    2.6891    0.7390    0.4927 C   0  0  0  0  0  0  0  0  0  0  0  0
    1.5423    1.4601    0.7618 N   0  0  0  0  0  0  0  0  0  0  0  0
    1.8233    2.8866    1.0637 C   0  0  0  0  0  0  0  0  0  0  0  0
    0.3584    1.3257    0.0221 C   0  0  0  0  0  0  0  0  0  0  0  0
   -0.2317   -0.0429    0.1986 C   0  0  0  0  0  0  0  0  0  0  0  0
   -1.5815   -0.2520   -0.4491 C   0  0  0  0  0  0  0  0  0  0  0  0
   -2.6302    0.6108    0.2423 C   0  0  2  0  0  0  0  0  0  0  0  0
   -2.5925    0.1899    1.6796 C   0  0  0  0  0  0  0  0  0  0  0  0
   -2.5866   -0.1497    2.7984 N   0  0  0  0  0  0  0  0  0  0  0  0
   -4.0331    0.2725   -0.1973 C   0  0  0  0  0  0  0  0  0  0  0  0
   -4.9049    1.1852   -0.7034 C   0  0  0  0  0  0  0  0  0  0  0  0
   -6.1777    0.7682   -1.0388 C   0  0  0  0  0  0  0  0  0  0  0  0
   -6.6005   -0.5299   -0.8840 C   0  0  0  0  0  0  0  0  0  0  0  0
   -7.8687   -0.9663   -1.2077 O   0  0  0  0  0  0  0  0  0  0  0  0
   -8.8205   -0.0532   -1.7198 C   0  0  0  0  0  0  0  0  0  0  0  0
   -5.7195   -1.4712   -0.3748 C   0  0  0  0  0  0  0  0  0  0  0  0
   -6.0860   -2.7954   -0.2030 O   0  0  0  0  0  0  0  0  0  0  0  0
   -5.1613   -3.7237    0.3206 C   0  0  0  0  0  0  0  0  0  0  0  0
   -4.4498   -1.0235   -0.0460 C   0  0  0  0  0  0  0  0  0  0  0  0
   -2.3204    2.0267    0.1558 C   0  0  0  0  0  0  0  0  0  0  0  0
   -2.2347    2.6933   -1.1423 C   0  0  0  0  0  0  0  0  0  0  0  0
   -2.5931    2.8562    1.3554 C   0  0  0  0  0  0  0  0  0  0  0  0
    5.7969    0.7088   -0.2830 C   0  0  0  0  0  0  0  0  0  0  0  0
    6.9225   -0.1170   -0.2771 C   0  0  0  0  0  0  0  0  0  0  0  0
    8.1086    0.3601    0.2228 O   0  0  0  0  0  0  0  0  0  0  0  0
    8.2055    1.6803    0.7378 C   0  0  0  0  0  0  0  0  0  0  0  0
  1  2  1  0
  2  3  1  0
  3  4  2  0
  4  5  1  0
  5  6  2  0
  6  7  1  0
  7  8  1  0
  8  9  1  0
  9 10  1  0
  9 11  1  0
 11 12  1  0
 12 13  1  0
 14 13  1  6
 14 15  1  0
 15 16  3  0
 14 17  1  0
 17 18  2  0
 18 19  1  0
 19 20  2  0
 20 21  1  0
 21 22  1  0
 20 23  1  0
 23 24  1  0
 24 25  1  0
 23 26  2  0
 14 27  1  0
 27 28  1  0
 27 29  1  0
  6 30  1  0
 30 31  2  0
 31 32  1  0
 32 33  1  0
 31  3  1  0
 26 17  1  0
M  END
>  <zinc_id>  (1) 
ZINC000003812888

>  <smiles>  (1) 
COc1ccc(CCN(C)CCC[C@](C#N)(c2ccc(OC)c(OC)c2)C(C)C)cc1OC

$$$$
