
     RDKit          3D

 26 28  0  0  0  0  0  0  0  0999 V2000
    1.9936    0.9750    2.0224 O   0  0  0  0  0  0  0  0  0  0  0  0
    2.2778    0.1511    0.7820 C   0  0  1  0  0  0  0  0  0  0  0  0
    0.7849    0.1482    0.3051 C   0  0  0  0  0  0  0  0  0  0  0  0
    0.2497    1.0866   -0.5099 C   0  0  0  0  0  0  0  0  0  0  0  0
   -1.0716    1.0652   -0.9203 C   0  0  0  0  0  0  0  0  0  0  0  0
   -1.6215    2.1370   -1.8237 C   0  0  0  0  0  0  0  0  0  0  0  0
   -2.9535    1.8521   -2.0353 F   0  0  0  0  0  0  0  0  0  0  0  0
   -0.9244    2.2262   -2.9918 F   0  0  0  0  0  0  0  0  0  0  0  0
   -1.5851    3.3817   -1.1812 F   0  0  0  0  0  0  0  0  0  0  0  0
   -1.8479    0.0662   -0.4850 N   0  0  0  0  0  0  0  0  0  0  0  0
   -1.3831   -0.8927    0.3210 C   0  0  0  0  0  0  0  0  0  0  0  0
   -0.0420   -0.8663    0.7342 C   0  0  0  0  0  0  0  0  0  0  0  0
    0.4496   -1.8385    1.5618 C   0  0  0  0  0  0  0  0  0  0  0  0
   -0.3957   -2.8412    1.9792 C   0  0  0  0  0  0  0  0  0  0  0  0
   -1.7030   -2.8415    1.5584 C   0  0  0  0  0  0  0  0  0  0  0  0
   -2.2477   -1.8852    0.7255 C   0  0  0  0  0  0  0  0  0  0  0  0
   -3.6663   -1.9427    0.2935 C   0  0  0  0  0  0  0  0  0  0  0  0
   -4.2598   -3.0531    0.8839 F   0  0  0  0  0  0  0  0  0  0  0  0
   -3.7702   -2.1506   -1.0898 F   0  0  0  0  0  0  0  0  0  0  0  0
   -4.3693   -0.7924    0.5435 F   0  0  0  0  0  0  0  0  0  0  0  0
    2.8163    1.4769   -0.1662 C   0  0  2  0  0  0  0  0  0  0  0  0
    3.6860    0.5193   -1.1468 C   0  0  0  0  0  0  0  0  0  0  0  0
    5.0845    0.9953   -1.2475 C   0  0  0  0  0  0  0  0  0  0  0  0
    5.8092    0.5801    0.0258 C   0  0  0  0  0  0  0  0  0  0  0  0
    4.6894    0.6024    1.0723 C   0  0  0  0  0  0  0  0  0  0  0  0
    3.9998    1.8410    0.7890 N   0  0  0  0  0  0  0  0  0  0  0  0
  2  1  1  1
  2  3  1  0
  3  4  2  0
  4  5  1  0
  5  6  1  0
  6  7  1  0
  6  8  1  0
  6  9  1  0
  5 10  2  0
 10 11  1  0
 11 12  2  0
 12 13  1  0
 13 14  2  0
 14 15  1  0
 15 16  2  0
 16 17  1  0
 17 18  1  0
 17 19  1  0
 17 20  1  0
  2 21  1  0
 21 22  1  6
 22 23  1  0
 23 24  1  0
 24 25  1  0
 25 26  1  0
 12  3  1  0
 26 21  1  0
 16 11  1  0
M  END
>  <zinc_id>  (1) 
ZINC000003874185

>  <smiles>  (1) 
O[C@@H](c1cc(C(F)(F)F)nc2c(C(F)(F)F)cccc12)[C@@H]1CCCCN1

$$$$
