
     RDKit          3D

 29 31  0  0  0  0  0  0  0  0999 V2000
    7.2496    1.2767   -0.2782 C   0  0  0  0  0  0  0  0  0  0  0  0
    6.7178    0.0810    0.1992 O   0  0  0  0  0  0  0  0  0  0  0  0
    5.3528   -0.0720    0.4242 C   0  0  0  0  0  0  0  0  0  0  0  0
    4.8864   -1.2837    0.8979 C   0  0  0  0  0  0  0  0  0  0  0  0
    3.5254   -1.3690    1.0995 C   0  0  0  0  0  0  0  0  0  0  0  0
    2.6754   -0.3133    0.8458 C   0  0  0  0  0  0  0  0  0  0  0  0
    1.2108   -0.6210    1.1399 C   0  0  2  0  0  0  0  0  0  0  0  0
    0.6882   -1.5156   -0.4175 S   0  0  0  0  0  0  0  0  0  0  0  0
   -0.9313   -2.1165   -0.0303 C   0  0  0  0  0  0  0  0  0  0  0  0
   -1.1072   -3.4096   -0.4458 C   0  0  0  0  0  0  0  0  0  0  0  0
   -2.3304   -4.0300   -0.2296 C   0  0  0  0  0  0  0  0  0  0  0  0
   -3.3072   -3.2996    0.3978 C   0  0  0  0  0  0  0  0  0  0  0  0
   -3.1269   -2.0097    0.8107 C   0  0  0  0  0  0  0  0  0  0  0  0
   -1.8903   -1.3685    0.5975 C   0  0  0  0  0  0  0  0  0  0  0  0
   -1.9679   -0.0661    1.1159 N   0  0  0  0  0  0  0  0  0  0  0  0
   -3.3236    0.3836    1.3488 C   0  0  0  0  0  0  0  0  0  0  0  0
   -3.8259    1.0513    0.1006 C   0  0  0  0  0  0  0  0  0  0  0  0
   -5.1440    1.5457    0.1755 N   0  0  0  0  0  0  0  0  0  0  0  0
   -6.1989    0.6258    0.2679 C   0  0  0  0  0  0  0  0  0  0  0  0
   -5.3459    2.8628    0.5913 C   0  0  0  0  0  0  0  0  0  0  0  0
   -0.9065    0.7443    1.3920 C   0  0  0  0  0  0  0  0  0  0  0  0
   -1.1377    1.6541    2.2119 O   0  0  0  0  0  0  0  0  0  0  0  0
    0.5775    0.9122    0.9964 C   0  0  2  0  0  0  0  0  0  0  0  0
    0.4798    0.9601   -0.5072 O   0  0  0  0  0  0  0  0  0  0  0  0
   -0.0063    2.1173   -1.0215 C   0  0  0  0  0  0  0  0  0  0  0  0
   -0.2166    2.4514   -2.4462 C   0  0  0  0  0  0  0  0  0  0  0  0
   -0.3021    2.9809   -0.1863 O   0  0  0  0  0  0  0  0  0  0  0  0
    3.1804    0.8332    0.3894 C   0  0  0  0  0  0  0  0  0  0  0  0
    4.5247    0.9945    0.1640 C   0  0  0  0  0  0  0  0  0  0  0  0
  1  2  1  0
  2  3  1  0
  3  4  2  0
  4  5  1  0
  5  6  2  0
  7  6  1  6
  7  8  1  0
  8  9  1  0
  9 10  2  0
 10 11  1  0
 11 12  2  0
 12 13  1  0
 13 14  2  0
 14 15  1  0
 15 16  1  0
 16 17  1  0
 17 18  1  0
 18 19  1  0
 18 20  1  0
 15 21  1  0
 21 22  2  0
 21 23  1  0
 23 24  1  6
 24 25  1  0
 25 26  1  0
 25 27  2  0
  6 28  1  0
 28 29  2  0
 29  3  1  0
 23  7  1  0
 14  9  1  0
M  END
>  <zinc_id>  (1) 
ZINC000000621893

>  <smiles>  (1) 
COc1ccc([C@@H]2Sc3ccccc3N(CCN(C)C)C(=O)[C@@H]2OC(C)=O)cc1

$$$$
