
     RDKit          3D

 11 13  0  0  0  0  0  0  0  0999 V2000
    2.5741   -0.5336   -0.5149 N   0  0  0  0  0  0  0  0  0  0  0  0
    1.1814   -0.2497   -0.3047 C   0  0  2  0  0  0  0  0  0  0  0  0
    1.0326    1.1962    0.0675 C   0  0  0  0  0  0  0  0  0  0  0  0
   -0.3971    1.5235    0.4794 C   0  0  1  0  0  0  0  0  0  0  0  0
   -1.2759    1.2482   -0.7072 C   0  0  0  0  0  0  0  0  0  0  0  0
   -1.0976   -0.2001   -1.1626 C   0  0  2  0  0  0  0  0  0  0  0  0
   -1.6010   -1.0575   -0.0035 C   0  0  0  0  0  0  0  0  0  0  0  0
   -0.7249   -0.8432    1.2015 C   0  0  2  0  0  0  0  0  0  0  0  0
   -0.7174    0.6077    1.6515 C   0  0  0  0  0  0  0  0  0  0  0  0
    0.7005   -1.1806    0.8077 C   0  0  0  0  0  0  0  0  0  0  0  0
    0.3251   -0.5108   -1.5147 C   0  0  0  0  0  0  0  0  0  0  0  0
  2  1  1  6
  2  3  1  0
  4  3  1  6
  4  5  1  0
  6  5  1  1
  6  7  1  0
  8  7  1  6
  8  9  1  0
  8 10  1  0
  6 11  1  0
 10  2  1  0
 11  2  1  0
  9  4  1  0
M  END
>  <zinc_id>  (1) 
ZINC000000968256

>  <smiles>  (1) 
NC12CC3CC(CC(C3)C1)C2

$$$$
