
     RDKit          3D

  9  8  0  0  0  0  0  0  0  0999 V2000
    2.7488    1.1009    0.0153 C   0  0  0  0  0  0  0  0  0  0  0  0
    1.5421    0.6775   -0.3817 C   0  0  0  0  0  0  0  0  0  0  0  0
    0.9970   -0.6268    0.4609 C   0  0  2  0  0  0  0  0  0  0  0  0
    2.2544   -1.4991    0.0630 N   0  0  0  0  0  0  0  0  0  0  0  0
    0.1049   -1.1789   -0.8345 C   0  0  0  0  0  0  0  0  0  0  0  0
   -0.8703   -0.2169   -1.2371 C   0  0  0  0  0  0  0  0  0  0  0  0
   -1.9268    0.3512   -0.5575 C   0  0  0  0  0  0  0  0  0  0  0  0
   -3.0326   -0.2149   -0.4148 O   0  0  0  0  0  0  0  0  0  0  0  0
   -1.8176    1.6072    0.0175 O   0  0  0  0  0  0  0  0  0  0  0  0
  1  2  2  0
  2  3  1  0
  3  4  1  6
  3  5  1  0
  5  6  1  0
  6  7  1  0
  7  8  2  0
  7  9  1  0
M  END
>  <zinc_id>  (1) 
ZINC000000403618

>  <smiles>  (1) 
C=C[C@H](N)CCC(=O)O

$$$$
