
     RDKit          3D

 27 27  0  0  0  0  0  0  0  0999 V2000
    8.6223    2.6826   -0.9472 C   0  0  0  0  0  0  0  0  0  0  0  0
    7.9737    2.1143   -0.0076 C   0  0  0  0  0  0  0  0  0  0  0  0
    6.5921    1.6438   -0.4837 C   0  0  0  0  0  0  0  0  0  0  0  0
    5.8651    0.9766    0.6620 C   0  0  0  0  0  0  0  0  0  0  0  0
    4.5373    0.5444    0.1284 C   0  0  0  0  0  0  0  0  0  0  0  0
    4.6441   -0.4215   -1.0208 C   0  0  0  0  0  0  0  0  0  0  0  0
    3.2238   -0.7812   -1.4725 C   0  0  0  0  0  0  0  0  0  0  0  0
    2.5264   -1.4146   -0.3313 C   0  0  0  0  0  0  0  0  0  0  0  0
    2.5615   -2.6176   -0.2782 O   0  0  0  0  0  0  0  0  0  0  0  0
    1.8400   -0.5849    0.6613 C   0  0  0  0  0  0  0  0  0  0  0  0
    0.5219   -0.1084    0.4423 C   0  0  0  0  0  0  0  0  0  0  0  0
   -0.6278   -1.2171    0.2755 C   0  0  1  0  0  0  0  0  0  0  0  0
   -0.4631   -1.9530    1.7979 C   0  0  2  0  0  0  0  0  0  0  0  0
   -0.3524   -3.3742    1.1809 O   0  0  0  0  0  0  0  0  0  0  0  0
   -2.0974   -2.1256    1.9955 C   0  0  0  0  0  0  0  0  0  0  0  0
   -1.8160   -0.5295    2.3574 C   0  0  2  0  0  0  0  0  0  0  0  0
   -3.2765   -0.2018    2.6112 O   0  0  0  0  0  0  0  0  0  0  0  0
   -1.8343   -0.1064    0.7082 C   0  0  2  0  0  0  0  0  0  0  0  0
   -3.0257   -1.0385    0.1884 C   0  0  0  0  0  0  0  0  0  0  0  0
   -4.3049   -0.4285    0.3595 C   0  0  0  0  0  0  0  0  0  0  0  0
   -5.0857   -0.2544   -0.6756 C   0  0  0  0  0  0  0  0  0  0  0  0
   -4.5340   -0.7239   -1.9389 C   0  0  0  0  0  0  0  0  0  0  0  0
   -4.5725    0.3579   -2.9378 C   0  0  0  0  0  0  0  0  0  0  0  0
   -3.8321    1.5841   -2.6265 C   0  0  0  0  0  0  0  0  0  0  0  0
   -4.2144    2.3889   -1.4646 C   0  0  0  0  0  0  0  0  0  0  0  0
   -3.3499    2.8765   -0.6519 O   0  0  0  0  0  0  0  0  0  0  0  0
   -5.5215    2.7118   -1.1160 O   0  0  0  0  0  0  0  0  0  0  0  0
  1  2  1  0
  2  3  1  0
  3  4  1  0
  4  5  1  0
  5  6  1  0
  6  7  1  0
  7  8  1  0
  8  9  2  0
  8 10  1  0
 10 11  1  0
 12 11  1  1
 12 13  1  0
 13 14  1  6
 13 15  1  0
 15 16  1  0
 16 17  1  1
 16 18  1  0
 18 19  1  6
 19 20  1  0
 20 21  2  0
 21 22  1  0
 22 23  1  0
 23 24  1  0
 24 25  1  0
 25 26  2  0
 25 27  1  0
 18 12  1  0
M  END
>  <zinc_id>  (1) 
ZINC000008214703

>  <smiles>  (1) 
CCCCCCCC(=O)CC[C@H]1[C@H](O)C[C@H](O)[C@@H]1C/C=C\CCCC(=O)O

$$$$
