
     RDKit          3D

  7  6  0  0  0  0  0  0  0  0999 V2000
    1.7104   -1.0675   -0.1817 O   0  0  0  0  0  0  0  0  0  0  0  0
    1.0523   -0.0307   -0.0120 C   0  0  0  0  0  0  0  0  0  0  0  0
    1.7351    1.1553    0.1850 O   0  0  0  0  0  0  0  0  0  0  0  0
   -0.7374   -0.0216   -0.0141 P   0  0  0  0  0  0  0  0  0  0  0  0
   -1.1749   -1.0884   -0.9744 O   0  0  0  0  0  0  0  0  0  0  0  0
   -1.2796   -0.4160    1.5287 O   0  0  0  0  0  0  0  0  0  0  0  0
   -1.3060    1.4690   -0.5314 O   0  0  0  0  0  0  0  0  0  0  0  0
  1  2  2  0
  2  3  1  0
  2  4  1  0
  4  5  2  0
  4  6  1  0
  4  7  1  0
M  END
>  <zinc_id>  (1) 
ZINC000008101109

>  <smiles>  (1) 
O=C(O)P(=O)(O)O

$$$$
