
     RDKit          3D

 25 27  0  0  0  0  0  0  0  0999 V2000
    1.5672    4.8245   -1.0301 C   0  0  0  0  0  0  0  0  0  0  0  0
    0.8667    3.8728   -0.1762 N   0  0  0  0  0  0  0  0  0  0  0  0
   -0.5464    3.9073   -0.3718 C   0  0  0  0  0  0  0  0  0  0  0  0
    1.4808    2.5872   -0.1783 C   0  0  0  0  0  0  0  0  0  0  0  0
    0.7742    1.6549    0.7350 C   0  0  0  0  0  0  0  0  0  0  0  0
   -0.6268    1.3788    0.4454 C   0  0  0  0  0  0  0  0  0  0  0  0
   -1.0253    0.1467    0.2369 C   0  0  0  0  0  0  0  0  0  0  0  0
   -2.4708   -0.0035   -0.0496 C   0  0  0  0  0  0  0  0  0  0  0  0
   -3.2214    1.0402    0.3971 C   0  0  0  0  0  0  0  0  0  0  0  0
   -4.5828    0.9896    0.1816 C   0  0  0  0  0  0  0  0  0  0  0  0
   -5.1618   -0.0887   -0.4680 C   0  0  0  0  0  0  0  0  0  0  0  0
   -4.3675   -1.1222   -0.9032 C   0  0  0  0  0  0  0  0  0  0  0  0
   -2.9975   -1.1024   -0.7029 C   0  0  0  0  0  0  0  0  0  0  0  0
   -2.3700   -2.3332   -1.2736 C   0  0  0  0  0  0  0  0  0  0  0  0
   -1.3260   -2.8536   -0.5041 O   0  0  0  0  0  0  0  0  0  0  0  0
   -0.1884   -2.2406   -0.0182 C   0  0  0  0  0  0  0  0  0  0  0  0
    0.8520   -3.1286    0.1161 C   0  0  0  0  0  0  0  0  0  0  0  0
    2.0790   -2.6990    0.5917 C   0  0  0  0  0  0  0  0  0  0  0  0
    2.2469   -1.3826    0.9264 C   0  0  0  0  0  0  0  0  0  0  0  0
    3.5799   -0.9279    1.4430 C   0  0  0  0  0  0  0  0  0  0  0  0
    4.4468   -0.5077    0.3383 C   0  0  0  0  0  0  0  0  0  0  0  0
    4.1049   -0.5362   -0.8789 O   0  0  0  0  0  0  0  0  0  0  0  0
    5.7213   -0.0497    0.6375 O   0  0  0  0  0  0  0  0  0  0  0  0
    1.1938   -0.5112    0.7844 C   0  0  0  0  0  0  0  0  0  0  0  0
   -0.0288   -0.9148    0.3160 C   0  0  0  0  0  0  0  0  0  0  0  0
  1  2  1  0
  2  3  1  0
  2  4  1  0
  4  5  1  0
  5  6  1  0
  6  7  2  0
  7  8  1  0
  8  9  2  0
  9 10  1  0
 10 11  2  0
 11 12  1  0
 12 13  2  0
 13 14  1  0
 14 15  1  0
 15 16  1  0
 16 17  2  0
 17 18  1  0
 18 19  2  0
 19 20  1  0
 20 21  1  0
 21 22  2  0
 21 23  1  0
 19 24  1  0
 24 25  2  0
 25  7  1  0
 13  8  1  0
 25 16  1  0
M  END
>  <zinc_id>  (1) 
ZINC000000001850

>  <smiles>  (1) 
CN(C)CC/C=C1/c2ccccc2COc2ccc(CC(=O)O)cc21

$$$$
