
     RDKit          3D

 19 21  0  0  0  0  0  0  0  0999 V2000
   -5.5618   -0.4638   -0.6301 O   0  0  0  0  0  0  0  0  0  0  0  0
   -4.6189    0.4927    0.0318 S   0  0  0  0  0  0  0  0  0  0  0  0
   -4.6535    1.7764   -0.7504 O   0  0  0  0  0  0  0  0  0  0  0  0
   -5.0667    0.8327    1.6055 O   0  0  0  0  0  0  0  0  0  0  0  0
   -2.9762   -0.1117    0.0259 C   0  0  0  0  0  0  0  0  0  0  0  0
   -2.7270   -1.4606    0.1470 C   0  0  0  0  0  0  0  0  0  0  0  0
   -1.4344   -1.9462    0.1433 C   0  0  0  0  0  0  0  0  0  0  0  0
   -0.3375   -1.1058    0.0187 C   0  0  0  0  0  0  0  0  0  0  0  0
    0.9958   -1.2994   -0.0149 N   0  0  0  0  0  0  0  0  0  0  0  0
    1.5930   -0.1076   -0.1540 C   0  0  0  0  0  0  0  0  0  0  0  0
    3.0509    0.0807   -0.2295 C   0  0  0  0  0  0  0  0  0  0  0  0
    3.9218   -0.9819   -0.1606 C   0  0  0  0  0  0  0  0  0  0  0  0
    5.2917   -0.8346   -0.2287 C   0  0  0  0  0  0  0  0  0  0  0  0
    5.7972    0.4582   -0.3740 C   0  0  0  0  0  0  0  0  0  0  0  0
    4.9642    1.5411   -0.4464 C   0  0  0  0  0  0  0  0  0  0  0  0
    3.6027    1.3362   -0.3731 C   0  0  0  0  0  0  0  0  0  0  0  0
    0.6343    0.8263   -0.2069 N   0  0  0  0  0  0  0  0  0  0  0  0
   -0.5860    0.2438   -0.1025 C   0  0  0  0  0  0  0  0  0  0  0  0
   -1.8896    0.7233   -0.0978 C   0  0  0  0  0  0  0  0  0  0  0  0
  1  2  2  0
  2  3  2  0
  2  4  1  0
  2  5  1  0
  5  6  2  0
  6  7  1  0
  7  8  2  0
  8  9  1  0
  9 10  1  0
 10 11  1  0
 11 12  2  0
 12 13  1  0
 13 14  2  0
 14 15  1  0
 15 16  2  0
 10 17  2  0
 17 18  1  0
 18 19  2  0
 19  5  1  0
 18  8  1  0
 16 11  1  0
M  END
>  <zinc_id>  (1) 
ZINC000006467621

>  <smiles>  (1) 
O=S(=O)(O)c1ccc2[nH]c(-c3ccccc3)nc2c1

$$$$
