
     RDKit          3D

 22 23  0  0  0  0  0  0  0  0999 V2000
   -4.5511    2.4199    0.8389 C   0  0  0  0  0  0  0  0  0  0  0  0
   -4.9911    1.5469    0.5927 C   0  0  0  0  0  0  0  0  0  0  0  0
   -6.2010    1.2637   -0.2999 C   0  0  0  0  0  0  0  0  0  0  0  0
   -4.4293    0.2472    0.9183 N   0  0  0  0  0  0  0  0  0  0  0  0
   -4.8678   -0.7485   -0.0605 C   0  0  0  0  0  0  0  0  0  0  0  0
   -4.0824   -2.1035    0.5455 C   0  0  1  0  0  0  0  0  0  0  0  0
   -4.6663   -2.9342   -0.6236 O   0  0  0  0  0  0  0  0  0  0  0  0
   -2.7249   -1.7356   -0.3238 C   0  0  0  0  0  0  0  0  0  0  0  0
   -1.9573   -1.0802    0.6797 O   0  0  0  0  0  0  0  0  0  0  0  0
   -0.7121   -0.5461    0.3832 C   0  0  0  0  0  0  0  0  0  0  0  0
    0.1261    0.0672    1.2572 C   0  0  0  0  0  0  0  0  0  0  0  0
    1.3404    0.5679    0.8474 C   0  0  0  0  0  0  0  0  0  0  0  0
    1.7614    0.4749   -0.4496 C   0  0  0  0  0  0  0  0  0  0  0  0
    3.0773    0.9939   -0.8835 C   0  0  0  0  0  0  0  0  0  0  0  0
    4.1129   -0.0499   -0.9488 C   0  0  0  0  0  0  0  0  0  0  0  0
    4.3399   -0.6878    0.2216 O   0  0  0  0  0  0  0  0  0  0  0  0
    4.7803    0.0941    1.2596 C   0  0  0  0  0  0  0  0  0  0  0  0
    6.0559    0.8075    0.9623 C   0  0  0  0  0  0  0  0  0  0  0  0
    6.1940    1.7777   -0.1441 C   0  0  0  0  0  0  0  0  0  0  0  0
    6.7156    0.3871   -0.3232 C   0  0  0  0  0  0  0  0  0  0  0  0
    0.9430   -0.1311   -1.3409 C   0  0  0  0  0  0  0  0  0  0  0  0
   -0.2636   -0.6312   -0.9444 C   0  0  0  0  0  0  0  0  0  0  0  0
  1  2  1  0
  2  3  1  0
  2  4  1  0
  4  5  1  0
  5  6  1  0
  6  7  1  6
  6  8  1  0
  8  9  1  0
  9 10  1  0
 10 11  2  0
 11 12  1  0
 12 13  2  0
 13 14  1  0
 14 15  1  0
 15 16  1  0
 16 17  1  0
 17 18  1  0
 18 19  1  0
 19 20  1  0
 13 21  1  0
 21 22  2  0
 22 10  1  0
 20 18  1  0
M  END
>  <zinc_id>  (1) 
ZINC000001530568

>  <smiles>  (1) 
CC(C)NC[C@@H](O)COc1ccc(CCOCC2CC2)cc1

$$$$
