
     RDKit          3D

 19 18  0  0  0  0  0  0  0  0999 V2000
    5.1743   -0.3016    2.6810 C   0  0  0  0  0  0  0  0  0  0  0  0
    4.2234   -1.1485    1.8489 C   0  0  0  0  0  0  0  0  0  0  0  0
    2.8212   -0.5954    2.1206 C   0  0  0  0  0  0  0  0  0  0  0  0
    2.7563    0.8705    1.7059 C   0  0  0  0  0  0  0  0  0  0  0  0
    3.0695    0.9265    0.2400 C   0  0  0  0  0  0  0  0  0  0  0  0
    2.1247    0.1585   -0.5527 N   0  0  0  0  0  0  0  0  0  0  0  0
    2.4372    0.2214   -1.9550 C   0  0  0  0  0  0  0  0  0  0  0  0
    0.8100    0.7229   -0.2978 C   0  0  0  0  0  0  0  0  0  0  0  0
   -0.2155   -0.0341   -1.0944 C   0  0  0  0  0  0  0  0  0  0  0  0
   -1.5813    0.5595   -0.8235 C   0  0  0  0  0  0  0  0  0  0  0  0
   -1.6204    1.9140   -1.1935 O   0  0  0  0  0  0  0  0  0  0  0  0
   -1.8789    0.4785    0.9459 P   0  0  0  0  0  0  0  0  0  0  0  0
   -0.9657    1.5223    1.5946 O   0  0  0  0  0  0  0  0  0  0  0  0
   -3.4529    0.8978    1.3661 O   0  0  0  0  0  0  0  0  0  0  0  0
   -1.4431   -1.0192    1.5905 O   0  0  0  0  0  0  0  0  0  0  0  0
   -2.7722   -0.3318   -1.8081 P   0  0  0  0  0  0  0  0  0  0  0  0
   -2.1578   -0.5851   -3.1685 O   0  0  0  0  0  0  0  0  0  0  0  0
   -3.1325   -1.8577   -1.1377 O   0  0  0  0  0  0  0  0  0  0  0  0
   -4.1964    0.5398   -2.0624 O   0  0  0  0  0  0  0  0  0  0  0  0
  1  2  1  0
  2  3  1  0
  3  4  1  0
  4  5  1  0
  5  6  1  0
  6  7  1  0
  6  8  1  0
  8  9  1  0
  9 10  1  0
 10 11  1  0
 10 12  1  0
 12 13  2  0
 12 14  1  0
 12 15  1  0
 10 16  1  0
 16 17  2  0
 16 18  1  0
 16 19  1  0
M  END
>  <zinc_id>  (1) 
ZINC000001533877

>  <smiles>  (1) 
CCCCCN(C)CCC(O)(P(=O)(O)O)P(=O)(O)O

$$$$
