
     RDKit          3D

 24 28  0  0  0  0  0  0  0  0999 V2000
    5.3931    0.6403    0.6764 C   0  0  0  0  0  0  0  0  0  0  0  0
    4.5838    0.6593    0.1158 C   0  0  0  0  0  0  0  0  0  0  0  0
    3.8164   -0.6014   -0.1170 C   0  0  0  0  0  0  0  0  0  0  0  0
    2.5480   -0.6317    0.2854 N   0  0  0  0  0  0  0  0  0  0  0  0
    2.0154   -0.6200    1.5121 C   0  0  0  0  0  0  0  0  0  0  0  0
    0.5858   -0.6065    1.7995 C   0  0  0  0  0  0  0  0  0  0  0  0
   -0.3351   -0.5428    0.5856 C   0  0  1  0  0  0  0  0  0  0  0  0
   -0.8687    0.7684    0.3497 C   0  0  0  0  0  0  0  0  0  0  0  0
   -2.1964    0.8395    0.4502 C   0  0  0  0  0  0  0  0  0  0  0  0
   -2.6936    2.1301    0.2365 C   0  0  0  0  0  0  0  0  0  0  0  0
   -4.0796    2.3054    0.3227 O   0  0  0  0  0  0  0  0  0  0  0  0
   -1.8584    3.1993   -0.0485 C   0  0  0  0  0  0  0  0  0  0  0  0
   -0.4591    2.9935   -0.1289 C   0  0  0  0  0  0  0  0  0  0  0  0
    0.0242    1.7401    0.0783 C   0  0  0  0  0  0  0  0  0  0  0  0
    1.3711    1.3170    0.0360 C   0  0  0  0  0  0  0  0  0  0  0  0
    1.6137   -0.0348   -0.8224 C   0  0  2  0  0  0  0  0  0  0  0  0
    0.3931   -1.0167   -0.4864 C   0  0  1  0  0  0  0  0  0  0  0  0
    0.8947   -2.2781   -0.1079 O   0  0  0  0  0  0  0  0  0  0  0  0
   -0.2442   -1.4093   -1.7987 C   0  0  0  0  0  0  0  0  0  0  0  0
   -1.0669   -2.6102   -1.4072 C   0  0  0  0  0  0  0  0  0  0  0  0
   -1.9397   -2.1571   -0.4150 C   0  0  0  0  0  0  0  0  0  0  0  0
   -3.1386   -2.3465   -0.5516 O   0  0  0  0  0  0  0  0  0  0  0  0
   -1.6453   -1.3970    0.9468 C   0  0  2  0  0  0  0  0  0  0  0  0
   -2.7136   -0.3407    0.7262 O   0  0  0  0  0  0  0  0  0  0  0  0
  1  2  2  0
  2  3  1  0
  3  4  1  0
  4  5  1  0
  5  6  1  0
  7  6  1  1
  7  8  1  0
  8  9  2  0
  9 10  1  0
 10 11  1  0
 10 12  2  0
 12 13  1  0
 13 14  2  0
 14 15  1  0
 16 15  1  1
 16 17  1  0
 17 18  1  1
 17 19  1  0
 19 20  1  0
 20 21  1  0
 21 22  2  0
 21 23  1  0
 23 24  1  6
 16  4  1  0
 17  7  1  0
 23  7  1  0
 14  8  1  0
 24  9  1  0
M  END
>  <zinc_id>  (1) 
ZINC000000389747

>  <smiles>  (1) 
C=CCN1CC[C@]23c4c5ccc(O)c4O[C@H]2C(=O)CC[C@@]3(O)[C@H]1C5

$$$$
