
     RDKit          3D

 23 24  0  0  0  0  0  0  0  0999 V2000
   -0.1115    1.6887   -1.8180 C   0  0  0  0  0  0  0  0  0  0  0  0
   -0.1280    1.1526   -1.7597 C   0  0  0  0  0  0  0  0  0  0  0  0
    0.6623   -0.0684   -1.8458 N   0  0  0  0  0  0  0  0  0  0  0  0
   -0.2965   -1.2250   -1.4957 C   0  0  1  0  0  0  0  0  0  0  0  0
    0.7135   -2.0974   -0.5842 C   0  0  0  0  0  0  0  0  0  0  0  0
    1.7925   -1.2938   -0.0886 N   0  0  0  0  0  0  0  0  0  0  0  0
    3.0647   -1.6197   -0.4616 C   0  0  0  0  0  0  0  0  0  0  0  0
    3.7886   -0.5299   -1.1709 C   0  0  0  0  0  0  0  0  0  0  0  0
    4.2179    0.6517   -0.4213 C   0  0  0  0  0  0  0  0  0  0  0  0
    5.2443    0.3980    0.4311 O   0  0  0  0  0  0  0  0  0  0  0  0
    5.0668   -0.6038    1.3000 C   0  0  0  0  0  0  0  0  0  0  0  0
    1.2627   -0.5158    1.2664 S   0  0  0  0  0  0  0  0  0  0  0  0
    1.8918    0.7662    1.6526 O   0  0  0  0  0  0  0  0  0  0  0  0
    1.2465   -1.4918    2.4266 O   0  0  0  0  0  0  0  0  0  0  0  0
   -0.4497   -0.1925    0.8600 C   0  0  0  0  0  0  0  0  0  0  0  0
   -1.6804    0.5700    1.7846 S   0  0  0  0  0  0  0  0  0  0  0  0
   -2.9556    0.4554    0.6201 C   0  0  0  0  0  0  0  0  0  0  0  0
   -4.6163    1.0499    0.7593 S   0  0  0  0  0  0  0  0  0  0  0  0
   -5.3490    0.3913    2.1499 N   0  0  0  0  0  0  0  0  0  0  0  0
   -5.3122    0.6217   -0.5090 O   0  0  0  0  0  0  0  0  0  0  0  0
   -4.6643    2.5604    0.7949 O   0  0  0  0  0  0  0  0  0  0  0  0
   -2.3443   -0.1654   -0.3953 C   0  0  0  0  0  0  0  0  0  0  0  0
   -1.0440   -0.5024   -0.2791 C   0  0  0  0  0  0  0  0  0  0  0  0
  1  2  1  0
  2  3  1  0
  4  3  1  6
  4  5  1  0
  5  6  1  0
  6  7  1  0
  7  8  1  0
  8  9  1  0
  9 10  1  0
 10 11  1  0
  6 12  1  0
 12 13  2  0
 12 14  2  0
 12 15  1  0
 15 16  1  0
 16 17  1  0
 17 18  1  0
 18 19  1  0
 18 20  2  0
 18 21  2  0
 17 22  2  0
 22 23  1  0
 23  4  1  0
 23 15  2  0
M  END
>  <zinc_id>  (1) 
ZINC000003953037

>  <smiles>  (1) 
CCN[C@H]1CN(CCCOC)S(=O)(=O)c2sc(S(N)(=O)=O)cc21

$$$$
