
     RDKit          3D

 12 13  0  0  0  0  0  0  0  0999 V2000
   -1.1589   -1.2668    0.4740 C   0  0  0  0  0  0  0  0  0  0  0  0
   -1.5158   -0.6630   -0.6548 N   0  0  0  0  0  0  0  0  0  0  0  0
   -2.9203   -0.2933   -0.4775 C   0  0  0  0  0  0  0  0  0  0  0  0
   -2.8621    0.4268    0.8647 C   0  0  0  0  0  0  0  0  0  0  0  0
   -1.4607    0.9683    0.9564 C   0  0  0  0  0  0  0  0  0  0  0  0
   -0.9532    0.7894   -0.5874 C   0  0  1  0  0  0  0  0  0  0  0  0
    0.5062    0.4170   -0.2681 C   0  0  0  0  0  0  0  0  0  0  0  0
    1.2600    0.9663    0.7157 C   0  0  0  0  0  0  0  0  0  0  0  0
    2.5791    0.5437    0.8807 C   0  0  0  0  0  0  0  0  0  0  0  0
    3.1124   -0.4150    0.0614 C   0  0  0  0  0  0  0  0  0  0  0  0
    2.3542   -0.9428   -0.9002 N   0  0  0  0  0  0  0  0  0  0  0  0
    1.0592   -0.5305   -1.0650 C   0  0  0  0  0  0  0  0  0  0  0  0
  1  2  1  0
  2  3  1  0
  3  4  1  0
  4  5  1  0
  5  6  1  0
  6  7  1  1
  7  8  2  0
  8  9  1  0
  9 10  2  0
 10 11  1  0
 11 12  2  0
  6  2  1  0
 12  7  1  0
M  END
>  <zinc_id>  (1) 
ZINC000000391812

>  <smiles>  (1) 
CN1CCC[C@H]1c1cccnc1

$$$$
