
     RDKit          3D

 19 20  0  0  0  0  0  0  0  0999 V2000
    1.3153    2.4796   -2.8276 C   0  0  0  0  0  0  0  0  0  0  0  0
    1.0518    2.9968   -1.7873 N   0  0  0  0  0  0  0  0  0  0  0  0
    0.2497    4.2076   -1.9574 C   0  0  0  0  0  0  0  0  0  0  0  0
    0.7757    2.3143   -0.5758 C   0  0  0  0  0  0  0  0  0  0  0  0
   -0.5283    1.5730   -0.6926 C   0  0  0  0  0  0  0  0  0  0  0  0
   -0.7470    0.8781    0.7624 C   0  0  2  0  0  0  0  0  0  0  0  0
    0.5355   -0.0022    0.7811 C   0  0  0  0  0  0  0  0  0  0  0  0
    0.9440   -0.3643    2.0260 C   0  0  0  0  0  0  0  0  0  0  0  0
    2.0834   -1.1747    2.2119 C   0  0  0  0  0  0  0  0  0  0  0  0
    2.7742   -1.5913    1.0932 C   0  0  0  0  0  0  0  0  0  0  0  0
    4.3195   -2.6915    1.3618 Br  0  0  0  0  0  0  0  0  0  0  0  0
    2.3391   -1.2114   -0.1381 C   0  0  0  0  0  0  0  0  0  0  0  0
    1.2033   -0.4047   -0.3050 C   0  0  0  0  0  0  0  0  0  0  0  0
   -1.7888   -0.2008    0.3248 C   0  0  0  0  0  0  0  0  0  0  0  0
   -2.4888   -0.8566    1.3050 C   0  0  0  0  0  0  0  0  0  0  0  0
   -3.4321   -1.8375    0.9831 C   0  0  0  0  0  0  0  0  0  0  0  0
   -3.6477   -2.1353   -0.3391 C   0  0  0  0  0  0  0  0  0  0  0  0
   -2.9343   -1.4642   -1.2934 C   0  0  0  0  0  0  0  0  0  0  0  0
   -2.0244   -0.5152   -0.9331 N   0  0  0  0  0  0  0  0  0  0  0  0
  1  2  1  0
  2  3  1  0
  2  4  1  0
  4  5  1  0
  6  5  1  6
  6  7  1  0
  7  8  2  0
  8  9  1  0
  9 10  2  0
 10 11  1  0
 10 12  1  0
 12 13  2  0
  6 14  1  0
 14 15  2  0
 15 16  1  0
 16 17  2  0
 17 18  1  0
 18 19  2  0
 13  7  1  0
 19 14  1  0
M  END
>  <zinc_id>  (1) 
ZINC000000896455

>  <smiles>  (1) 
CN(C)CC[C@H](c1ccc(Br)cc1)c1ccccn1

$$$$
