
     RDKit          3D

 21 23  0  0  0  0  0  0  0  0999 V2000
   -3.6110   -0.7301    1.3393 C   0  0  0  0  0  0  0  0  0  0  0  0
   -2.4077   -0.9297    0.6051 N   0  0  0  0  0  0  0  0  0  0  0  0
   -1.7833    0.2739    0.1671 C   0  0  0  0  0  0  0  0  0  0  0  0
   -2.6084    1.3741    0.1042 C   0  0  0  0  0  0  0  0  0  0  0  0
   -2.0366    2.5796   -0.3207 C   0  0  0  0  0  0  0  0  0  0  0  0
   -0.7073    2.6918   -0.6681 C   0  0  0  0  0  0  0  0  0  0  0  0
   -0.0842    4.2660   -1.1932 Cl  0  0  0  0  0  0  0  0  0  0  0  0
    0.1105    1.5812   -0.6010 C   0  0  0  0  0  0  0  0  0  0  0  0
   -0.4324    0.3734   -0.1824 C   0  0  0  0  0  0  0  0  0  0  0  0
    0.5687   -0.7207   -0.1525 C   0  0  0  0  0  0  0  0  0  0  0  0
    1.9376   -0.2646    0.1233 C   0  0  0  0  0  0  0  0  0  0  0  0
    2.1647    1.0698    0.3350 C   0  0  0  0  0  0  0  0  0  0  0  0
    3.4496    1.5556    0.6013 C   0  0  0  0  0  0  0  0  0  0  0  0
    4.5372    0.7178    0.6622 C   0  0  0  0  0  0  0  0  0  0  0  0
    4.3037   -0.6190    0.4492 C   0  0  0  0  0  0  0  0  0  0  0  0
    3.0245   -1.1056    0.1836 C   0  0  0  0  0  0  0  0  0  0  0  0
    0.3221   -1.9067   -0.3487 N   0  0  0  0  0  0  0  0  0  0  0  0
   -0.9079   -2.7989   -0.6782 C   0  0  2  0  0  0  0  0  0  0  0  0
   -1.4434   -2.0376   -1.9243 O   0  0  0  0  0  0  0  0  0  0  0  0
   -1.9750   -2.2178    0.3974 C   0  0  0  0  0  0  0  0  0  0  0  0
   -2.4214   -3.1524    1.1014 O   0  0  0  0  0  0  0  0  0  0  0  0
  1  2  1  0
  2  3  1  0
  3  4  2  0
  4  5  1  0
  5  6  2  0
  6  7  1  0
  6  8  1  0
  8  9  2  0
  9 10  1  0
 10 11  1  0
 11 12  2  0
 12 13  1  0
 13 14  2  0
 14 15  1  0
 15 16  2  0
 10 17  2  0
 17 18  1  0
 18 19  1  6
 18 20  1  0
 20 21  2  0
 20  2  1  0
  9  3  1  0
 16 11  1  0
M  END
>  <zinc_id>  (1) 
ZINC000000896634

>  <smiles>  (1) 
CN1C(=O)[C@@H](O)N=C(c2ccccc2)c2cc(Cl)ccc21

$$$$
