
     RDKit          3D

 46 49  0  0  0  0  0  0  0  0999 V2000
   13.3117    3.6721   -1.3636 C   0  0  0  0  0  0  0  0  0  0  0  0
   12.9710    2.6444   -0.3023 C   0  0  0  0  0  0  0  0  0  0  0  0
   13.5879    1.3240   -0.7597 C   0  0  0  0  0  0  0  0  0  0  0  0
   13.2653    0.2696    0.2818 C   0  0  0  0  0  0  0  0  0  0  0  0
   11.7654    0.0984    0.4372 C   0  0  0  0  0  0  0  0  0  0  0  0
   11.2034   -0.3230   -0.8824 C   0  0  0  0  0  0  0  0  0  0  0  0
    9.8195   -0.5153   -0.8871 O   0  0  0  0  0  0  0  0  0  0  0  0
    9.1222   -1.4176   -0.1077 C   0  0  0  0  0  0  0  0  0  0  0  0
    9.7638   -2.1526    0.6903 O   0  0  0  0  0  0  0  0  0  0  0  0
    7.7005   -1.5112   -0.2098 N   0  0  0  0  0  0  0  0  0  0  0  0
    6.9553   -0.6191    0.3503 C   0  0  0  0  0  0  0  0  0  0  0  0
    7.6331    0.4339    1.0571 N   0  0  0  0  0  0  0  0  0  0  0  0
    5.4985   -0.6506    0.2698 C   0  0  0  0  0  0  0  0  0  0  0  0
    4.7482    0.3204    0.8923 C   0  0  0  0  0  0  0  0  0  0  0  0
    3.3705    0.3446    0.8378 C   0  0  0  0  0  0  0  0  0  0  0  0
    2.6953   -0.6297    0.1401 C   0  0  0  0  0  0  0  0  0  0  0  0
    1.2814   -0.6630    0.0198 N   0  0  0  0  0  0  0  0  0  0  0  0
    0.6747   -1.7833   -0.6631 C   0  0  0  0  0  0  0  0  0  0  0  0
   -0.8024   -1.5001   -0.7152 C   0  0  0  0  0  0  0  0  0  0  0  0
   -1.3812   -0.2800   -0.8190 N   0  0  0  0  0  0  0  0  0  0  0  0
   -2.7257   -0.3867   -0.8384 C   0  0  0  0  0  0  0  0  0  0  0  0
   -3.7714    0.5155   -0.9280 C   0  0  0  0  0  0  0  0  0  0  0  0
   -5.0964    0.1419   -0.9263 C   0  0  0  0  0  0  0  0  0  0  0  0
   -6.1728    1.1476   -1.0109 C   0  0  0  0  0  0  0  0  0  0  0  0
   -5.8075    2.3529   -1.0627 O   0  0  0  0  0  0  0  0  0  0  0  0
   -7.5414    0.8474   -1.0340 N   0  0  0  0  0  0  0  0  0  0  0  0
   -8.5022    1.9302   -0.9894 C   0  0  0  0  0  0  0  0  0  0  0  0
   -8.9427    2.3155    0.3855 C   0  0  0  0  0  0  0  0  0  0  0  0
   -7.8377    2.7449    1.2553 C   0  0  0  0  0  0  0  0  0  0  0  0
   -7.2097    1.9007    1.9500 O   0  0  0  0  0  0  0  0  0  0  0  0
   -7.4681    4.0759    1.3280 O   0  0  0  0  0  0  0  0  0  0  0  0
   -6.3823    4.4415    2.1926 C   0  0  0  0  0  0  0  0  0  0  0  0
   -6.1393    5.9171    2.1308 C   0  0  0  0  0  0  0  0  0  0  0  0
   -8.0795   -0.4601   -1.0732 C   0  0  0  0  0  0  0  0  0  0  0  0
   -8.5046   -1.1371    0.0676 C   0  0  0  0  0  0  0  0  0  0  0  0
   -9.0387   -2.4060    0.0036 C   0  0  0  0  0  0  0  0  0  0  0  0
   -9.1573   -3.0236   -1.2144 C   0  0  0  0  0  0  0  0  0  0  0  0
   -8.7390   -2.3573   -2.3404 C   0  0  0  0  0  0  0  0  0  0  0  0
   -8.2261   -1.1240   -2.2296 N   0  0  0  0  0  0  0  0  0  0  0  0
   -5.3476   -1.2031   -0.8292 C   0  0  0  0  0  0  0  0  0  0  0  0
   -4.3237   -2.1209   -0.7390 C   0  0  0  0  0  0  0  0  0  0  0  0
   -2.9942   -1.7371   -0.7412 C   0  0  0  0  0  0  0  0  0  0  0  0
   -1.8189   -2.3712   -0.6696 N   0  0  0  0  0  0  0  0  0  0  0  0
   -1.6541   -3.8224   -0.5548 C   0  0  0  0  0  0  0  0  0  0  0  0
    3.4584   -1.6123   -0.4871 C   0  0  0  0  0  0  0  0  0  0  0  0
    4.8386   -1.6313   -0.4301 C   0  0  0  0  0  0  0  0  0  0  0  0
  1  2  1  0
  2  3  1  0
  3  4  1  0
  4  5  1  0
  5  6  1  0
  6  7  1  0
  7  8  1  0
  8  9  2  0
  8 10  1  0
 10 11  2  0
 11 12  1  0
 11 13  1  0
 13 14  2  0
 14 15  1  0
 15 16  2  0
 16 17  1  0
 17 18  1  0
 18 19  1  0
 19 20  2  0
 20 21  1  0
 21 22  2  0
 22 23  1  0
 23 24  1  0
 24 25  2  0
 24 26  1  0
 26 27  1  0
 27 28  1  0
 28 29  1  0
 29 30  2  0
 29 31  1  0
 31 32  1  0
 32 33  1  0
 26 34  1  0
 34 35  2  0
 35 36  1  0
 36 37  2  0
 37 38  1  0
 38 39  2  0
 23 40  2  0
 40 41  1  0
 41 42  2  0
 42 43  1  0
 43 44  1  0
 16 45  1  0
 45 46  2  0
 46 13  1  0
 43 19  1  0
 42 21  1  0
 39 34  1  0
M  END
>  <zinc_id>  (1) 
ZINC000003943279

>  <smiles>  (1) 
CCCCCCOC(=O)/N=C(\N)c1ccc(NCc2nc3cc(C(=O)N(CCC(=O)OCC)c4ccccn4)ccc3n2C)cc1

$$$$
