
     RDKit          3D

 21 23  0  0  0  0  0  0  0  0999 V2000
    3.0312   -1.0902    0.4002 C   0  0  0  0  0  0  0  0  0  0  0  0
    3.6193    0.0938   -0.1546 N   0  0  0  0  0  0  0  0  0  0  0  0
    3.5215    1.2148    0.7155 C   0  0  0  0  0  0  0  0  0  0  0  0
    3.2526    0.2571   -1.5100 C   0  0  0  0  0  0  0  0  0  0  0  0
    1.8206    0.5499   -1.7997 C   0  0  0  0  0  0  0  0  0  0  0  0
    0.9062   -0.5002   -1.3190 C   0  0  0  0  0  0  0  0  0  0  0  0
   -0.1013   -0.2455   -0.5550 C   0  0  0  0  0  0  0  0  0  0  0  0
   -0.9009   -1.4129   -0.1694 C   0  0  0  0  0  0  0  0  0  0  0  0
   -0.7643   -2.4867   -1.0094 C   0  0  0  0  0  0  0  0  0  0  0  0
   -1.4590   -3.6805   -0.7809 C   0  0  0  0  0  0  0  0  0  0  0  0
   -2.2981   -3.8004    0.2989 C   0  0  0  0  0  0  0  0  0  0  0  0
   -2.4305   -2.7210    1.1364 C   0  0  0  0  0  0  0  0  0  0  0  0
   -1.7425   -1.5307    0.9151 C   0  0  0  0  0  0  0  0  0  0  0  0
   -2.0277   -0.5036    1.9391 C   0  0  0  0  0  0  0  0  0  0  0  0
   -1.7323    0.8075    1.9297 C   0  0  0  0  0  0  0  0  0  0  0  0
   -1.0416    1.5895    0.8972 C   0  0  0  0  0  0  0  0  0  0  0  0
   -1.1535    2.9689    1.0713 C   0  0  0  0  0  0  0  0  0  0  0  0
   -0.5734    3.8598    0.1866 C   0  0  0  0  0  0  0  0  0  0  0  0
    0.1391    3.4244   -0.9035 C   0  0  0  0  0  0  0  0  0  0  0  0
    0.2581    2.0412   -1.0881 C   0  0  0  0  0  0  0  0  0  0  0  0
   -0.3236    1.1649   -0.2005 C   0  0  0  0  0  0  0  0  0  0  0  0
  1  2  1  0
  2  3  1  0
  2  4  1  0
  4  5  1  0
  5  6  1  0
  6  7  2  3
  7  8  1  0
  8  9  2  0
  9 10  1  0
 10 11  2  0
 11 12  1  0
 12 13  2  0
 13 14  1  0
 14 15  2  0
 15 16  1  0
 16 17  2  0
 17 18  1  0
 18 19  2  0
 19 20  1  0
 20 21  2  0
 21  7  1  0
 13  8  1  0
 21 16  1  0
M  END
>  <zinc_id>  (1) 
ZINC000000968263

>  <smiles>  (1) 
CN(C)CCC=C1c2ccccc2C=Cc2ccccc21

$$$$
