
     RDKit          3D

 34 37  0  0  0  0  0  0  0  0999 V2000
    4.9762   -3.4318   -0.3360 C   0  0  0  0  0  0  0  0  0  0  0  0
    3.8975   -3.1824    0.7027 C   0  0  0  0  0  0  0  0  0  0  0  0
    3.7109   -1.7838    0.8305 O   0  0  0  0  0  0  0  0  0  0  0  0
    3.3231   -1.0420   -0.2590 C   0  0  0  0  0  0  0  0  0  0  0  0
    3.1227   -1.5715   -1.3944 O   0  0  0  0  0  0  0  0  0  0  0  0
    3.1435    0.4374   -0.0462 C   0  0  0  0  0  0  0  0  0  0  0  0
    4.4627    0.9670    0.3914 C   0  0  0  0  0  0  0  0  0  0  0  0
    4.5910    1.8470    1.4448 C   0  0  0  0  0  0  0  0  0  0  0  0
    5.8020    2.3210    1.8384 C   0  0  0  0  0  0  0  0  0  0  0  0
    6.9765    1.9507    1.2082 C   0  0  0  0  0  0  0  0  0  0  0  0
    6.8275    1.0656    0.1521 C   0  0  0  0  0  0  0  0  0  0  0  0
    5.6097    0.5761   -0.2594 C   0  0  0  0  0  0  0  0  0  0  0  0
    2.7625    1.0970   -1.3202 C   0  0  0  0  0  0  0  0  0  0  0  0
    1.3639    1.6529   -1.2263 C   0  0  0  0  0  0  0  0  0  0  0  0
    0.5212    0.5942   -0.7065 N   0  0  0  0  0  0  0  0  0  0  0  0
   -0.8536    0.7341   -1.0601 C   0  0  0  0  0  0  0  0  0  0  0  0
   -1.6418   -0.4014   -0.4712 C   0  0  0  0  0  0  0  0  0  0  0  0
   -3.1178   -0.3053   -0.8184 C   0  0  0  0  0  0  0  0  0  0  0  0
   -3.2375   -0.3442   -2.2718 C   0  0  0  0  0  0  0  0  0  0  0  0
   -3.3516   -0.3868   -3.4363 N   0  0  0  0  0  0  0  0  0  0  0  0
   -3.8767   -1.4365   -0.2234 C   0  0  0  0  0  0  0  0  0  0  0  0
   -3.4609   -2.7283   -0.4526 C   0  0  0  0  0  0  0  0  0  0  0  0
   -4.1198   -3.8131    0.0766 C   0  0  0  0  0  0  0  0  0  0  0  0
   -5.2339   -3.6209    0.8634 C   0  0  0  0  0  0  0  0  0  0  0  0
   -5.6447   -2.3235    1.0880 C   0  0  0  0  0  0  0  0  0  0  0  0
   -4.9840   -1.2512    0.5587 C   0  0  0  0  0  0  0  0  0  0  0  0
   -3.6136    0.9997   -0.3366 C   0  0  0  0  0  0  0  0  0  0  0  0
   -3.6007    1.3306    0.9922 C   0  0  0  0  0  0  0  0  0  0  0  0
   -4.0662    2.5430    1.3988 C   0  0  0  0  0  0  0  0  0  0  0  0
   -4.5584    3.4660    0.5063 C   0  0  0  0  0  0  0  0  0  0  0  0
   -4.5646    3.1179   -0.8311 C   0  0  0  0  0  0  0  0  0  0  0  0
   -4.0989    1.9020   -1.2469 C   0  0  0  0  0  0  0  0  0  0  0  0
    0.7505    0.3907    0.7075 C   0  0  0  0  0  0  0  0  0  0  0  0
    2.1831    0.6298    1.0952 C   0  0  0  0  0  0  0  0  0  0  0  0
  1  2  1  0
  2  3  1  0
  3  4  1  0
  4  5  2  0
  4  6  1  0
  6  7  1  0
  7  8  2  0
  8  9  1  0
  9 10  2  0
 10 11  1  0
 11 12  2  0
  6 13  1  0
 13 14  1  0
 14 15  1  0
 15 16  1  0
 16 17  1  0
 17 18  1  0
 18 19  1  0
 19 20  3  0
 18 21  1  0
 21 22  2  0
 22 23  1  0
 23 24  2  0
 24 25  1  0
 25 26  2  0
 18 27  1  0
 27 28  2  0
 28 29  1  0
 29 30  2  0
 30 31  1  0
 31 32  2  0
 15 33  1  0
 33 34  1  0
 34  6  1  0
 12  7  1  0
 26 21  1  0
 32 27  1  0
M  END
>  <zinc_id>  (1) 
ZINC000003830716

>  <smiles>  (1) 
CCOC(=O)C1(c2ccccc2)CCN(CCC(C#N)(c2ccccc2)c2ccccc2)CC1

$$$$
