
     RDKit          3D

 14 15  0  0  0  0  0  0  0  0999 V2000
   -3.2242    2.0781   -1.3267 C   0  0  0  0  0  0  0  0  0  0  0  0
   -2.1117    1.2215   -0.7743 C   0  0  0  0  0  0  0  0  0  0  0  0
   -2.4746    0.1848   -0.1065 N   0  0  0  0  0  0  0  0  0  0  0  0
   -1.3689   -0.9131    0.6014 S   0  0  0  0  0  0  0  0  0  0  0  0
   -1.5649   -2.2470   -0.1077 O   0  0  0  0  0  0  0  0  0  0  0  0
   -1.5808   -1.0584    2.0755 O   0  0  0  0  0  0  0  0  0  0  0  0
    0.2465   -0.3391    0.2320 C   0  0  0  0  0  0  0  0  0  0  0  0
    1.3578   -1.0249    0.6743 C   0  0  0  0  0  0  0  0  0  0  0  0
    2.6392   -0.6108    0.4078 C   0  0  0  0  0  0  0  0  0  0  0  0
    4.0678   -1.4581    0.9542 Cl  0  0  0  0  0  0  0  0  0  0  0  0
    2.7606    0.5553   -0.3435 C   0  0  0  0  0  0  0  0  0  0  0  0
    1.6562    1.2393   -0.7846 C   0  0  0  0  0  0  0  0  0  0  0  0
    0.3534    0.8065   -0.5061 C   0  0  0  0  0  0  0  0  0  0  0  0
   -0.7564    1.5659   -0.9958 N   0  0  0  0  0  0  0  0  0  0  0  0
  1  2  1  0
  2  3  2  0
  3  4  1  0
  4  5  2  0
  4  6  2  0
  4  7  1  0
  7  8  2  0
  8  9  1  0
  9 10  1  0
  9 11  2  0
 11 12  1  0
 12 13  2  0
 13 14  1  0
 14  2  1  0
 13  7  1  0
M  END
>  <zinc_id>  (1) 
ZINC000003872277

>  <smiles>  (1) 
CC1=NS(=O)(=O)c2cc(Cl)ccc2N1

$$$$
