
     RDKit          3D

 21 25  0  0  0  0  0  0  0  0999 V2000
   -3.4739    2.4222   -0.0376 C   0  0  0  0  0  0  0  0  0  0  0  0
   -3.0347    1.0247   -0.1851 N   0  0  0  0  0  0  0  0  0  0  0  0
   -2.4960    0.8890   -1.4462 C   0  0  0  0  0  0  0  0  0  0  0  0
   -1.3380    0.0641   -1.7652 C   0  0  0  0  0  0  0  0  0  0  0  0
   -0.4780   -0.3498   -0.6499 C   0  0  1  0  0  0  0  0  0  0  0  0
    0.6398    0.3594   -0.2503 C   0  0  0  0  0  0  0  0  0  0  0  0
    1.7899   -0.3304   -0.3610 C   0  0  0  0  0  0  0  0  0  0  0  0
    2.9116    0.3641    0.0647 C   0  0  0  0  0  0  0  0  0  0  0  0
    4.1467   -0.2939   -0.0217 O   0  0  0  0  0  0  0  0  0  0  0  0
    2.8181    1.6691    0.5611 C   0  0  0  0  0  0  0  0  0  0  0  0
    1.5578    2.3051    0.6350 C   0  0  0  0  0  0  0  0  0  0  0  0
    0.4613    1.6309    0.2202 C   0  0  0  0  0  0  0  0  0  0  0  0
   -0.9428    1.9811    0.1377 C   0  0  0  0  0  0  0  0  0  0  0  0
   -1.9044    1.0017    0.9260 C   0  0  2  0  0  0  0  0  0  0  0  0
   -1.5119   -0.5743    0.5270 C   0  0  2  0  0  0  0  0  0  0  0  0
   -0.4388   -0.7040    1.7315 C   0  0  0  0  0  0  0  0  0  0  0  0
    0.3459   -1.9525    1.5097 C   0  0  0  0  0  0  0  0  0  0  0  0
   -0.1029   -2.5724    0.2804 C   0  0  0  0  0  0  0  0  0  0  0  0
   -0.6155   -3.6291    0.0830 O   0  0  0  0  0  0  0  0  0  0  0  0
    0.0822   -1.7716   -1.1001 C   0  0  2  0  0  0  0  0  0  0  0  0
    1.5838   -1.5333   -0.8594 O   0  0  0  0  0  0  0  0  0  0  0  0
  1  2  1  0
  2  3  1  0
  3  4  1  0
  5  4  1  6
  5  6  1  0
  6  7  2  0
  7  8  1  0
  8  9  1  0
  8 10  2  0
 10 11  1  0
 11 12  2  0
 12 13  1  0
 14 13  1  6
 14 15  1  0
 15 16  1  1
 16 17  1  0
 17 18  1  0
 18 19  2  0
 18 20  1  0
 20 21  1  1
 14  2  1  0
 15  5  1  0
 20  5  1  0
 12  6  1  0
 21  7  1  0
M  END
>  <zinc_id>  (1) 
ZINC000000402954

>  <smiles>  (1) 
CN1CC[C@]23c4c5ccc(O)c4O[C@H]2C(=O)CC[C@H]3[C@H]1C5

$$$$
