
     RDKit          3D

 19 19  0  0  0  0  0  0  0  0999 V2000
   -0.0751   -2.9048   -1.2405 C   0  0  0  0  0  0  0  0  0  0  0  0
    0.0655   -2.4548   -0.8892 C   0  0  0  0  0  0  0  0  0  0  0  0
    0.7486   -1.2027   -0.5272 C   0  0  0  0  0  0  0  0  0  0  0  0
   -0.1369   -0.0774   -0.1958 C   0  0  2  0  0  0  0  0  0  0  0  0
    0.7589    1.2260    0.1802 C   0  0  2  0  0  0  0  0  0  0  0  0
    1.5437    1.3493   -1.2522 C   0  0  0  0  0  0  0  0  0  0  0  0
    1.9362    0.4655    0.8876 C   0  0  0  0  0  0  0  0  0  0  0  0
    2.8271   -0.1108    1.4539 C   0  0  0  0  0  0  0  0  0  0  0  0
    3.8957   -0.8040    2.1628 C   0  0  0  0  0  0  0  0  0  0  0  0
    5.2362   -0.6001    1.4526 C   0  0  0  0  0  0  0  0  0  0  0  0
   -0.7702   -0.3760    1.1235 C   0  0  0  0  0  0  0  0  0  0  0  0
   -0.4013   -1.3439    1.8472 O   0  0  0  0  0  0  0  0  0  0  0  0
   -1.8304    0.4668    1.5775 N   0  0  0  0  0  0  0  0  0  0  0  0
   -2.6103    1.2495    0.6666 C   0  0  0  0  0  0  0  0  0  0  0  0
   -3.5373    1.9918    1.0221 O   0  0  0  0  0  0  0  0  0  0  0  0
   -2.2432    1.1185   -0.7206 N   0  0  0  0  0  0  0  0  0  0  0  0
   -3.0176    1.9006   -1.6632 C   0  0  0  0  0  0  0  0  0  0  0  0
   -1.1767    0.2634   -1.1217 C   0  0  0  0  0  0  0  0  0  0  0  0
   -1.2129   -0.1570   -2.3091 O   0  0  0  0  0  0  0  0  0  0  0  0
  1  2  2  0
  2  3  1  0
  4  3  1  6
  4  5  1  0
  5  6  1  6
  5  7  1  0
  7  8  3  0
  8  9  1  0
  9 10  1  0
  4 11  1  0
 11 12  2  0
 11 13  1  0
 13 14  1  0
 14 15  2  0
 14 16  1  0
 16 17  1  0
 16 18  1  0
 18 19  2  0
 18  4  1  0
M  END
>  <zinc_id>  (1) 
ZINC000003876069

>  <smiles>  (1) 
C=CC[C@]1([C@H](C)C#CCC)C(=O)NC(=O)N(C)C1=O

$$$$
