
     RDKit          3D

 34 37  0  0  0  0  0  0  0  0999 V2000
    8.0131    2.3334    1.5491 C   0  0  0  0  0  0  0  0  0  0  0  0
    7.2806    1.8123    1.8926 O   0  0  0  0  0  0  0  0  0  0  0  0
    6.3289    0.9992    1.2726 C   0  0  0  0  0  0  0  0  0  0  0  0
    6.2919    0.7961   -0.0914 C   0  0  0  0  0  0  0  0  0  0  0  0
    5.3801    0.0097   -0.7380 C   0  0  0  0  0  0  0  0  0  0  0  0
    4.4405   -0.6134    0.0567 C   0  0  0  0  0  0  0  0  0  0  0  0
    4.4220   -0.4560    1.3907 C   0  0  0  0  0  0  0  0  0  0  0  0
    5.3548    0.3444    2.0273 C   0  0  0  0  0  0  0  0  0  0  0  0
    5.3908    0.5468    3.3977 O   0  0  0  0  0  0  0  0  0  0  0  0
    4.4156   -0.1027    4.2113 C   0  0  0  0  0  0  0  0  0  0  0  0
    3.7688   -1.3186   -1.1913 C   0  0  1  0  0  0  0  0  0  0  0  0
    2.6277   -0.1485   -1.4597 C   0  0  0  0  0  0  0  0  0  0  0  0
    1.9336   -0.6569   -2.5908 N   0  0  0  0  0  0  0  0  0  0  0  0
    2.6586   -0.6970   -3.8131 C   0  0  0  0  0  0  0  0  0  0  0  0
    0.9755   -1.6742   -2.3775 C   0  0  0  0  0  0  0  0  0  0  0  0
   -0.2622   -1.2864   -1.6431 C   0  0  0  0  0  0  0  0  0  0  0  0
   -0.0115   -0.7675   -0.2483 C   0  0  0  0  0  0  0  0  0  0  0  0
   -1.2125   -0.4010    0.4263 N   0  0  0  0  0  0  0  0  0  0  0  0
   -1.9474   -1.3641    1.2168 C   0  0  0  0  0  0  0  0  0  0  0  0
   -3.1472   -1.7650    0.4199 C   0  0  0  0  0  0  0  0  0  0  0  0
   -4.1523   -0.7208    0.2152 C   0  0  0  0  0  0  0  0  0  0  0  0
   -5.4009   -1.2840   -0.0446 C   0  0  0  0  0  0  0  0  0  0  0  0
   -6.5341   -0.5359   -0.2808 C   0  0  0  0  0  0  0  0  0  0  0  0
   -7.7667   -1.1331   -0.5371 O   0  0  0  0  0  0  0  0  0  0  0  0
   -7.8170   -2.5622   -0.5463 C   0  0  0  0  0  0  0  0  0  0  0  0
   -6.4237    0.8324   -0.2583 C   0  0  0  0  0  0  0  0  0  0  0  0
   -7.5637    1.6030   -0.4961 O   0  0  0  0  0  0  0  0  0  0  0  0
   -7.4599    3.0160   -0.4755 C   0  0  0  0  0  0  0  0  0  0  0  0
   -5.1971    1.4061   -0.0031 C   0  0  0  0  0  0  0  0  0  0  0  0
   -4.0558    0.6336    0.2349 C   0  0  0  0  0  0  0  0  0  0  0  0
   -2.9351    1.5738    0.4675 C   0  0  0  0  0  0  0  0  0  0  0  0
   -1.6081    0.9581    0.2451 C   0  0  0  0  0  0  0  0  0  0  0  0
   -0.7230    1.7464   -0.1559 O   0  0  0  0  0  0  0  0  0  0  0  0
    4.9357   -0.5064   -2.0727 C   0  0  0  0  0  0  0  0  0  0  0  0
  1  2  1  0
  2  3  1  0
  3  4  2  0
  4  5  1  0
  5  6  2  0
  6  7  1  0
  7  8  2  0
  8  9  1  0
  9 10  1  0
  6 11  1  0
 11 12  1  6
 12 13  1  0
 13 14  1  0
 13 15  1  0
 15 16  1  0
 16 17  1  0
 17 18  1  0
 18 19  1  0
 19 20  1  0
 20 21  1  0
 21 22  2  0
 22 23  1  0
 23 24  1  0
 24 25  1  0
 23 26  2  0
 26 27  1  0
 27 28  1  0
 26 29  1  0
 29 30  2  0
 30 31  1  0
 31 32  1  0
 32 33  2  0
 11 34  1  0
  8  3  1  0
 32 18  1  0
 34  5  1  0
 30 21  1  0
M  END
>  <zinc_id>  (1) 
ZINC000003805768

>  <smiles>  (1) 
COc1cc2c(cc1OC)CC(=O)N(CCCN(C)C[C@H]1Cc3cc(OC)c(OC)cc31)CC2

$$$$
