
     RDKit          3D

 15 16  0  0  0  0  0  0  0  0999 V2000
   -2.5963   -2.3982   -0.7962 N   0  0  0  0  0  0  0  0  0  0  0  0
   -1.9057   -1.2137   -0.4441 C   0  0  0  0  0  0  0  0  0  0  0  0
   -0.5379   -1.0987   -0.5039 C   0  0  0  0  0  0  0  0  0  0  0  0
    0.1184    0.0788   -0.1517 C   0  0  0  0  0  0  0  0  0  0  0  0
    1.5157    0.2174   -0.2057 N   0  0  0  0  0  0  0  0  0  0  0  0
    2.1500    1.4485    0.1661 C   0  0  0  0  0  0  0  0  0  0  0  0
    3.6572    1.2346    0.0124 C   0  0  0  0  0  0  0  0  0  0  0  0
    4.1296    0.0185    0.7532 C   0  0  0  0  0  0  0  0  0  0  0  0
    3.2961   -1.2062    0.4877 C   0  0  0  0  0  0  0  0  0  0  0  0
    2.3359   -0.8781   -0.6365 C   0  0  0  0  0  0  0  0  0  0  0  0
   -0.7029    1.0827    0.2484 N   0  0  0  0  0  0  0  0  0  0  0  0
   -2.0206    0.9862    0.3109 C   0  0  0  0  0  0  0  0  0  0  0  0
   -2.8202    2.0949    0.7450 N   0  0  0  0  0  0  0  0  0  0  0  0
   -2.6164   -0.1549   -0.0333 N   0  0  0  0  0  0  0  0  0  0  0  0
   -4.0028   -0.2119    0.0475 O   0  0  0  0  0  0  0  0  0  0  0  0
  1  2  1  0
  2  3  2  0
  3  4  1  0
  4  5  1  0
  5  6  1  0
  6  7  1  0
  7  8  1  0
  8  9  1  0
  9 10  1  0
  4 11  2  0
 11 12  1  0
 12 13  1  0
 12 14  2  0
 14 15  1  0
 14  2  1  0
 10  5  1  0
M  CHG  2  14   1  15  -1
M  END
>  <zinc_id>  (1) 
ZINC000000001735

>  <smiles>  (1) 
Nc1cc(N2CCCCC2)nc(N)[n+]1[O-]

$$$$
