
     RDKit          3D

 14 14  0  0  0  0  0  0  0  0999 V2000
   -0.1248   -0.0775    1.0119 O   0  0  0  0  0  0  0  0  0  0  0  0
   -0.5531   -0.1383   -0.4280 P   0  0  2  0  0  0  0  0  0  0  0  0
    0.8010    0.2217   -1.4751 N   0  0  0  0  0  0  0  0  0  0  0  0
    1.0525    1.6480   -1.4650 C   0  0  0  0  0  0  0  0  0  0  0  0
    1.2115    2.1366   -0.0298 C   0  0  0  0  0  0  0  0  0  0  0  0
    1.5234    3.8866   -0.0469 Cl  0  0  0  0  0  0  0  0  0  0  0  0
    2.0078   -0.4262   -1.0301 C   0  0  0  0  0  0  0  0  0  0  0  0
    1.9143   -1.9168   -0.9796 C   0  0  0  0  0  0  0  0  0  0  0  0
    3.4891   -2.5433   -0.4113 Cl  0  0  0  0  0  0  0  0  0  0  0  0
   -1.7699    1.0994   -0.7263 N   0  0  0  0  0  0  0  0  0  0  0  0
   -3.0320    0.3691   -0.9156 C   0  0  0  0  0  0  0  0  0  0  0  0
   -3.0595   -0.6665    0.1996 C   0  0  0  0  0  0  0  0  0  0  0  0
   -2.3248   -1.9208   -0.1511 C   0  0  0  0  0  0  0  0  0  0  0  0
   -1.1354   -1.6721   -0.8076 O   0  0  0  0  0  0  0  0  0  0  0  0
  1  2  2  0
  2  3  1  6
  3  4  1  0
  4  5  1  0
  5  6  1  0
  3  7  1  0
  7  8  1  0
  8  9  1  0
  2 10  1  0
 10 11  1  0
 11 12  1  0
 12 13  1  0
 13 14  1  0
 14  2  1  0
M  END
>  <zinc_id>  (1) 
ZINC000000155694

>  <smiles>  (1) 
O=[P@]1(N(CCCl)CCCl)NCCCO1

$$$$
