
     RDKit          3D

 27 29  0  0  0  0  0  0  0  0999 V2000
    7.2301   -0.3708   -0.7783 O   0  0  0  0  0  0  0  0  0  0  0  0
    6.4925   -1.5633   -0.7998 C   0  0  0  0  0  0  0  0  0  0  0  0
    5.0634   -1.3218   -0.3819 C   0  0  0  0  0  0  0  0  0  0  0  0
    4.3872   -0.4052   -1.2237 O   0  0  0  0  0  0  0  0  0  0  0  0
    3.0698   -0.1138   -0.9148 C   0  0  0  0  0  0  0  0  0  0  0  0
    2.4286   -0.7031    0.1789 C   0  0  0  0  0  0  0  0  0  0  0  0
    1.1306   -0.3871    0.4490 C   0  0  0  0  0  0  0  0  0  0  0  0
    0.3797    0.5144   -0.3195 C   0  0  0  0  0  0  0  0  0  0  0  0
   -0.9821    0.7695    0.0619 C   0  0  0  0  0  0  0  0  0  0  0  0
   -1.8314   -0.2362    0.2445 C   0  0  0  0  0  0  0  0  0  0  0  0
   -3.2572    0.0702    0.6552 C   0  0  0  0  0  0  0  0  0  0  0  0
   -3.4816   -0.5916    1.9842 C   0  0  0  0  0  0  0  0  0  0  0  0
   -5.1363   -0.3093    2.5771 Cl  0  0  0  0  0  0  0  0  0  0  0  0
   -1.4758   -1.6141   -0.0111 C   0  0  0  0  0  0  0  0  0  0  0  0
   -1.6415   -2.5855    0.9627 C   0  0  0  0  0  0  0  0  0  0  0  0
   -1.3251   -3.9192    0.6914 C   0  0  0  0  0  0  0  0  0  0  0  0
   -0.8452   -4.2757   -0.5540 C   0  0  0  0  0  0  0  0  0  0  0  0
   -0.6836   -3.3225   -1.5154 C   0  0  0  0  0  0  0  0  0  0  0  0
   -1.0011   -1.9927   -1.2361 C   0  0  0  0  0  0  0  0  0  0  0  0
   -1.4944    2.1298    0.2841 C   0  0  0  0  0  0  0  0  0  0  0  0
   -0.6818    3.0685    0.8765 C   0  0  0  0  0  0  0  0  0  0  0  0
   -1.1840    4.3543    1.1021 C   0  0  0  0  0  0  0  0  0  0  0  0
   -2.4828    4.7023    0.7392 C   0  0  0  0  0  0  0  0  0  0  0  0
   -3.2719    3.7555    0.1507 C   0  0  0  0  0  0  0  0  0  0  0  0
   -2.7666    2.4969   -0.0640 C   0  0  0  0  0  0  0  0  0  0  0  0
    1.0271    1.0787   -1.3862 C   0  0  0  0  0  0  0  0  0  0  0  0
    2.3338    0.7716   -1.6730 C   0  0  0  0  0  0  0  0  0  0  0  0
  1  2  1  0
  2  3  1  0
  3  4  1  0
  4  5  1  0
  5  6  2  0
  6  7  1  0
  7  8  2  0
  8  9  1  0
  9 10  2  0
 10 11  1  0
 11 12  1  0
 12 13  1  0
 10 14  1  0
 14 15  2  0
 15 16  1  0
 16 17  2  0
 17 18  1  0
 18 19  2  0
  9 20  1  0
 20 21  2  0
 21 22  1  0
 22 23  2  0
 23 24  1  0
 24 25  2  0
  8 26  1  0
 26 27  2  0
 27  5  1  0
 19 14  1  0
 25 20  1  0
M  END
>  <zinc_id>  (1) 
ZINC000001550766

>  <smiles>  (1) 
OCCOc1ccc(/C(=C(/CCCl)c2ccccc2)c2ccccc2)cc1

$$$$
