
     RDKit          3D

 34 34  0  0  0  0  0  0  0  0999 V2000
   -2.0889    0.7458   -3.1589 C   0  0  0  0  0  0  0  0  0  0  0  0
   -3.1537    0.5209   -2.1782 C   0  0  0  0  0  0  0  0  0  0  0  0
   -4.2993    0.7244   -2.6494 O   0  0  0  0  0  0  0  0  0  0  0  0
   -2.8311    0.1196   -0.8777 N   0  0  0  0  0  0  0  0  0  0  0  0
   -3.5917   -0.2739    0.2290 C   0  0  0  0  0  0  0  0  0  0  0  0
   -3.9908    0.9707    1.1749 C   0  0  2  0  0  0  0  0  0  0  0  0
   -4.6943    0.0718    2.2105 O   0  0  0  0  0  0  0  0  0  0  0  0
   -5.4593    1.2856    0.4595 C   0  0  0  0  0  0  0  0  0  0  0  0
   -5.9904    0.0723    0.1234 O   0  0  0  0  0  0  0  0  0  0  0  0
   -1.4110    0.0706   -0.5855 C   0  0  0  0  0  0  0  0  0  0  0  0
   -0.7668    1.2457   -0.4582 C   0  0  0  0  0  0  0  0  0  0  0  0
   -1.8004    3.0459   -0.6534 I   0  0  0  0  0  0  0  0  0  0  0  0
    0.6214    1.2198   -0.1748 C   0  0  0  0  0  0  0  0  0  0  0  0
    1.2608    2.5118   -0.0508 C   0  0  0  0  0  0  0  0  0  0  0  0
    0.6513    3.5621   -0.4516 O   0  0  0  0  0  0  0  0  0  0  0  0
    2.5335    2.6193    0.5044 N   0  0  0  0  0  0  0  0  0  0  0  0
    3.1110    3.9612    0.5944 C   0  0  0  0  0  0  0  0  0  0  0  0
    3.2171    4.4608   -0.9659 C   0  0  2  0  0  0  0  0  0  0  0  0
    4.1666    3.3259   -1.3349 O   0  0  0  0  0  0  0  0  0  0  0  0
    4.4427    5.5037   -0.6510 C   0  0  0  0  0  0  0  0  0  0  0  0
    3.7607    6.6764   -0.2678 O   0  0  0  0  0  0  0  0  0  0  0  0
    1.2473    0.0197   -0.0454 C   0  0  0  0  0  0  0  0  0  0  0  0
    3.3281   -0.0004    0.3863 I   0  0  0  0  0  0  0  0  0  0  0  0
    0.5895   -1.1707   -0.1746 C   0  0  0  0  0  0  0  0  0  0  0  0
    1.2338   -2.4704   -0.0727 C   0  0  0  0  0  0  0  0  0  0  0  0
    2.0357   -2.7517   -0.9602 O   0  0  0  0  0  0  0  0  0  0  0  0
    1.2022   -3.5147    0.7662 N   0  0  0  0  0  0  0  0  0  0  0  0
    1.1850   -4.4703    1.5166 C   0  0  0  0  0  0  0  0  0  0  0  0
    2.4283   -5.2125    2.2261 C   0  0  2  0  0  0  0  0  0  0  0  0
    3.1300   -5.5910    0.9179 O   0  0  0  0  0  0  0  0  0  0  0  0
    1.6375   -6.6860    2.2756 C   0  0  0  0  0  0  0  0  0  0  0  0
    0.8790   -6.5636    3.4362 O   0  0  0  0  0  0  0  0  0  0  0  0
   -0.7621   -1.1226   -0.4491 C   0  0  0  0  0  0  0  0  0  0  0  0
   -1.8216   -2.9062   -0.6608 I   0  0  0  0  0  0  0  0  0  0  0  0
  1  2  1  0
  2  3  2  0
  2  4  1  0
  4  5  1  0
  5  6  1  0
  6  7  1  1
  6  8  1  0
  8  9  1  0
  4 10  1  0
 10 11  2  0
 11 12  1  0
 11 13  1  0
 13 14  1  0
 14 15  2  0
 14 16  1  0
 16 17  1  0
 17 18  1  0
 18 19  1  6
 18 20  1  0
 20 21  1  0
 13 22  2  0
 22 23  1  0
 22 24  1  0
 24 25  1  0
 25 26  2  0
 25 27  1  0
 27 28  1  0
 28 29  1  0
 29 30  1  6
 29 31  1  0
 31 32  1  0
 24 33  2  0
 33 34  1  0
 33 10  1  0
M  END
>  <zinc_id>  (1) 
ZINC000003830944

>  <smiles>  (1) 
CC(=O)N(C[C@@H](O)CO)c1c(I)c(C(=O)NC[C@H](O)CO)c(I)c(C(=O)NC[C@H](O)CO)c1I

$$$$
