
     RDKit          3D

 21 23  0  0  0  0  0  0  0  0999 V2000
    3.3080   -4.4179   -0.5719 C   0  0  0  0  0  0  0  0  0  0  0  0
    2.4037   -3.2372   -0.5475 C   0  0  0  0  0  0  0  0  0  0  0  0
    1.4334   -3.0696    0.4286 C   0  0  0  0  0  0  0  0  0  0  0  0
    0.6054   -1.9720    0.4227 C   0  0  0  0  0  0  0  0  0  0  0  0
    0.6728   -0.9836   -0.5234 C   0  0  0  0  0  0  0  0  0  0  0  0
   -0.1511    0.1790   -0.5672 N   0  0  0  0  0  0  0  0  0  0  0  0
   -1.5197    0.1444   -0.9773 C   0  0  0  0  0  0  0  0  0  0  0  0
   -2.4689   -0.4650   -0.0220 C   0  0  0  0  0  0  0  0  0  0  0  0
   -3.4203    0.2185    0.5089 N   0  0  0  0  0  0  0  0  0  0  0  0
   -4.2194   -0.5592    1.4024 C   0  0  0  0  0  0  0  0  0  0  0  0
   -3.2950   -1.7499    1.7398 C   0  0  0  0  0  0  0  0  0  0  0  0
   -2.5372   -1.7815    0.4782 N   0  0  0  0  0  0  0  0  0  0  0  0
    0.4076    1.4584   -0.1878 C   0  0  0  0  0  0  0  0  0  0  0  0
    1.7268    1.5767    0.1692 C   0  0  0  0  0  0  0  0  0  0  0  0
    2.2780    2.7920    0.5326 C   0  0  0  0  0  0  0  0  0  0  0  0
    1.4698    3.9307    0.5368 C   0  0  0  0  0  0  0  0  0  0  0  0
    0.1598    3.8054    0.1801 C   0  0  0  0  0  0  0  0  0  0  0  0
   -0.6352    4.9657    0.1922 O   0  0  0  0  0  0  0  0  0  0  0  0
   -0.3656    2.5803   -0.1800 C   0  0  0  0  0  0  0  0  0  0  0  0
    1.6609   -1.1583   -1.5123 C   0  0  0  0  0  0  0  0  0  0  0  0
    2.4862   -2.2572   -1.5019 C   0  0  0  0  0  0  0  0  0  0  0  0
  1  2  1  0
  2  3  2  0
  3  4  1  0
  4  5  2  0
  5  6  1  0
  6  7  1  0
  7  8  1  0
  8  9  2  0
  9 10  1  0
 10 11  1  0
 11 12  1  0
  6 13  1  0
 13 14  2  0
 14 15  1  0
 15 16  2  0
 16 17  1  0
 17 18  1  0
 17 19  2  0
  5 20  1  0
 20 21  2  0
 21  2  1  0
 12  8  1  0
 19 13  1  0
M  END
>  <zinc_id>  (1) 
ZINC000000020251

>  <smiles>  (1) 
Cc1ccc(N(CC2=NCCN2)c2cccc(O)c2)cc1

$$$$
