
     RDKit          2D

  5  4  0  0  0  0  0  0  0  0999 V2000
   -1.8187   -0.7500    0.0000 C   0  0  0  0  0  0  0  0  0  0  0  0
   -0.5196    0.0000    0.0000 C   0  0  0  0  0  0  0  0  0  0  0  0
   -0.5196    1.5000    0.0000 O   0  0  0  0  0  0  0  0  0  0  0  0
    0.7794   -0.7500    0.0000 C   0  0  0  0  0  0  0  0  0  0  0  0
    2.0785   -0.0000    0.0000 O   0  0  0  0  0  0  0  0  0  0  0  0
  2  1  1  6
  2  3  1  0
  2  4  1  0
  4  5  1  0
M  END
>  <zinc_id>  (1) 
ZINC000000895316

>  <smiles>  (1) 
C[C@H](O)CO

$$$$
