
     RDKit          3D

 30 33  0  0  0  0  0  0  0  0999 V2000
   -0.3875   -2.1178   -0.3801 O   0  0  0  0  0  0  0  0  0  0  0  0
   -0.5517   -1.3844   -0.1362 C   0  0  0  0  0  0  0  0  0  0  0  0
    0.2307    0.0020   -0.0895 C   0  0  2  0  0  0  0  0  0  0  0  0
    1.3756   -0.4705    1.0081 C   0  0  0  0  0  0  0  0  0  0  0  0
    2.0596   -1.6303    0.4210 C   0  0  0  0  0  0  0  0  0  0  0  0
    2.7400   -1.1730   -1.0325 C   0  0  2  0  0  0  0  0  0  0  0  0
    3.2824   -2.6220   -1.2484 O   0  0  0  0  0  0  0  0  0  0  0  0
    4.0803   -0.6103   -0.3992 C   0  0  0  0  0  0  0  0  0  0  0  0
    5.2299   -0.9874   -1.0158 C   0  0  0  0  0  0  0  0  0  0  0  0
    6.4945   -0.5489   -0.5673 C   0  0  0  0  0  0  0  0  0  0  0  0
    6.4813    0.2810    0.5303 C   0  0  0  0  0  0  0  0  0  0  0  0
    7.6553    0.7414    1.0290 F   0  0  0  0  0  0  0  0  0  0  0  0
    5.2972    0.6533    1.1438 C   0  0  0  0  0  0  0  0  0  0  0  0
    4.0615    0.2020    0.6763 C   0  0  0  0  0  0  0  0  0  0  0  0
   -0.9221    0.3373    1.1716 C   0  0  1  0  0  0  0  0  0  0  0  0
   -1.3867    1.6804    0.5706 C   0  0  0  0  0  0  0  0  0  0  0  0
   -2.6387    2.0695    0.3545 C   0  0  0  0  0  0  0  0  0  0  0  0
   -2.9598    3.2985   -0.1474 C   0  0  0  0  0  0  0  0  0  0  0  0
   -1.9802    4.2029   -0.4576 C   0  0  0  0  0  0  0  0  0  0  0  0
   -2.3264    5.4709   -0.9749 O   0  0  0  0  0  0  0  0  0  0  0  0
   -0.6651    3.8492   -0.2523 C   0  0  0  0  0  0  0  0  0  0  0  0
   -0.3736    2.5817    0.2648 C   0  0  0  0  0  0  0  0  0  0  0  0
   -1.7214   -0.7235    0.4720 N   0  0  0  0  0  0  0  0  0  0  0  0
   -3.0556   -1.1699    0.3449 C   0  0  0  0  0  0  0  0  0  0  0  0
   -3.4783   -2.3176    1.0440 C   0  0  0  0  0  0  0  0  0  0  0  0
   -4.7399   -2.8530    0.9419 C   0  0  0  0  0  0  0  0  0  0  0  0
   -5.6664   -2.2520    0.1177 C   0  0  0  0  0  0  0  0  0  0  0  0
   -6.9209   -2.7639   -0.0064 F   0  0  0  0  0  0  0  0  0  0  0  0
   -5.2366   -1.1308   -0.5556 C   0  0  0  0  0  0  0  0  0  0  0  0
   -3.9774   -0.6149   -0.4423 C   0  0  0  0  0  0  0  0  0  0  0  0
  1  2  2  0
  2  3  1  0
  3  4  1  1
  4  5  1  0
  5  6  1  0
  6  7  1  6
  6  8  1  0
  8  9  2  0
  9 10  1  0
 10 11  2  0
 11 12  1  0
 11 13  1  0
 13 14  2  0
  3 15  1  0
 15 16  1  6
 16 17  2  0
 17 18  1  0
 18 19  2  0
 19 20  1  0
 19 21  1  0
 21 22  2  0
 15 23  1  0
 23 24  1  0
 24 25  2  0
 25 26  1  0
 26 27  2  0
 27 28  1  0
 27 29  1  0
 29 30  2  0
 23  2  1  0
 30 24  1  0
 14  8  1  0
 22 16  1  0
M  END
>  <zinc_id>  (1) 
ZINC000003810860

>  <smiles>  (1) 
O=C1[C@H](CC[C@H](O)c2ccc(F)cc2)[C@@H](c2ccc(O)cc2)N1c1ccc(F)cc1

$$$$
