
     RDKit          3D

 15 16  0  0  0  0  0  0  0  0999 V2000
    5.1128   -1.1291   -0.0082 N   0  0  0  0  0  0  0  0  0  0  0  0
    3.7274   -0.7104   -0.0233 C   0  0  0  0  0  0  0  0  0  0  0  0
    2.8344   -0.8178   -0.9700 N   0  0  0  0  0  0  0  0  0  0  0  0
    1.6163   -0.3721   -0.7907 C   0  0  0  0  0  0  0  0  0  0  0  0
    0.5769   -0.4342   -1.7362 C   0  0  0  0  0  0  0  0  0  0  0  0
   -0.6366    0.0685   -1.4116 C   0  0  0  0  0  0  0  0  0  0  0  0
   -0.9762    0.6490   -0.2285 C   0  0  0  0  0  0  0  0  0  0  0  0
   -2.2413    1.1361    0.0182 O   0  0  0  0  0  0  0  0  0  0  0  0
   -3.2763    0.3433    0.5853 C   0  0  0  0  0  0  0  0  0  0  0  0
   -3.5303   -0.7513   -0.2472 F   0  0  0  0  0  0  0  0  0  0  0  0
   -4.4432    1.0876    0.5971 F   0  0  0  0  0  0  0  0  0  0  0  0
   -2.9767   -0.0500    1.8635 F   0  0  0  0  0  0  0  0  0  0  0  0
    0.0563    0.7127    0.7158 C   0  0  0  0  0  0  0  0  0  0  0  0
    1.3281    0.2015    0.4147 C   0  0  0  0  0  0  0  0  0  0  0  0
    2.8285    0.0662    1.2211 S   0  0  0  0  0  0  0  0  0  0  0  0
  1  2  1  0
  2  3  2  0
  3  4  1  0
  4  5  2  0
  5  6  1  0
  6  7  2  0
  7  8  1  0
  8  9  1  0
  9 10  1  0
  9 11  1  0
  9 12  1  0
  7 13  1  0
 13 14  2  0
 14 15  1  0
 15  2  1  0
 14  4  1  0
M  END
>  <zinc_id>  (1) 
ZINC000000006481

>  <smiles>  (1) 
Nc1nc2ccc(OC(F)(F)F)cc2s1

$$$$
