
     RDKit          3D

 21 23  0  0  0  0  0  0  0  0999 V2000
   -1.6141    1.1625    3.5008 N   0  0  0  0  0  0  0  0  0  0  0  0
   -1.8936    0.7110    2.5071 C   0  0  0  0  0  0  0  0  0  0  0  0
   -2.2779    0.1380    1.2447 C   0  0  0  0  0  0  0  0  0  0  0  0
   -1.3329   -0.3668    0.4976 C   0  0  0  0  0  0  0  0  0  0  0  0
   -1.5007   -1.1389   -1.1035 S   0  0  0  0  0  0  0  0  0  0  0  0
    0.1448   -0.8938   -1.7220 C   0  0  0  0  0  0  0  0  0  0  0  0
    1.1288   -1.3980   -0.5803 C   0  0  1  0  0  0  0  0  0  0  0  0
    2.3465   -0.5225   -0.9070 C   0  0  0  0  0  0  0  0  0  0  0  0
    2.5271    0.3206   -1.9082 C   0  0  0  0  0  0  0  0  0  0  0  0
    3.6705    1.0529   -2.0949 C   0  0  0  0  0  0  0  0  0  0  0  0
    4.7051    0.9282   -1.2113 C   0  0  0  0  0  0  0  0  0  0  0  0
    6.2072    1.8478   -1.3951 Cl  0  0  0  0  0  0  0  0  0  0  0  0
    4.5624    0.0611   -0.1519 C   0  0  0  0  0  0  0  0  0  0  0  0
    3.3718   -0.6735    0.0051 C   0  0  0  0  0  0  0  0  0  0  0  0
    3.3100   -1.7353    1.3833 Cl  0  0  0  0  0  0  0  0  0  0  0  0
    0.3722   -0.4203    0.8734 S   0  0  0  0  0  0  0  0  0  0  0  0
   -3.6584    0.1308    0.8372 N   0  0  0  0  0  0  0  0  0  0  0  0
   -4.6884   -0.5516    1.3100 C   0  0  0  0  0  0  0  0  0  0  0  0
   -5.8209   -0.2204    0.5907 C   0  0  0  0  0  0  0  0  0  0  0  0
   -5.4279    0.6858   -0.3293 N   0  0  0  0  0  0  0  0  0  0  0  0
   -4.1316    0.8824   -0.1656 C   0  0  0  0  0  0  0  0  0  0  0  0
  1  2  3  0
  2  3  1  0
  3  4  2  0
  4  5  1  0
  5  6  1  0
  6  7  1  0
  7  8  1  6
  8  9  2  0
  9 10  1  0
 10 11  2  0
 11 12  1  0
 11 13  1  0
 13 14  2  0
 14 15  1  0
  7 16  1  0
  3 17  1  0
 17 18  1  0
 18 19  2  0
 19 20  1  0
 20 21  2  0
 16  4  1  0
 21 17  1  0
 14  8  1  0
M  END
>  <zinc_id>  (1) 
ZINC000003929486

>  <smiles>  (1) 
N#C/C(=C1/SC[C@@H](c2ccc(Cl)cc2Cl)S1)n1ccnc1

$$$$
