
     RDKit          3D

 25 26  0  0  0  0  0  0  0  0999 V2000
   -3.6640   -0.4273    1.9993 C   0  0  0  0  0  0  0  0  0  0  0  0
   -3.8177   -0.4133    0.8349 C   0  0  0  0  0  0  0  0  0  0  0  0
   -5.0709    0.0431    0.1669 C   0  0  0  0  0  0  0  0  0  0  0  0
   -2.6521   -0.2075   -0.0586 N   0  0  0  0  0  0  0  0  0  0  0  0
   -1.7154   -1.2464    0.0740 C   0  0  0  0  0  0  0  0  0  0  0  0
   -0.3553   -1.1702   -0.3598 C   0  0  0  0  0  0  0  0  0  0  0  0
    0.6679   -0.3214    0.2330 C   0  0  2  0  0  0  0  0  0  0  0  0
    0.8005   -0.7163    1.6902 C   0  0  0  0  0  0  0  0  0  0  0  0
    1.8534   -0.3168    2.5118 N   0  0  0  0  0  0  0  0  0  0  0  0
   -0.1086   -1.4482    2.1590 O   0  0  0  0  0  0  0  0  0  0  0  0
    0.5744    1.1309    0.1618 C   0  0  0  0  0  0  0  0  0  0  0  0
    1.7098    1.7920    0.7067 C   0  0  0  0  0  0  0  0  0  0  0  0
    1.7099    3.1526    0.6842 C   0  0  0  0  0  0  0  0  0  0  0  0
    0.6940    3.9234    0.1752 C   0  0  0  0  0  0  0  0  0  0  0  0
   -0.4307    3.2904   -0.3653 C   0  0  0  0  0  0  0  0  0  0  0  0
   -0.4160    1.9206   -0.3364 C   0  0  0  0  0  0  0  0  0  0  0  0
    2.0468   -0.7050   -0.3353 C   0  0  0  0  0  0  0  0  0  0  0  0
    2.8801   -1.5596    0.3353 C   0  0  0  0  0  0  0  0  0  0  0  0
    4.1052   -1.8866   -0.1768 C   0  0  0  0  0  0  0  0  0  0  0  0
    4.4943   -1.3503   -1.3739 C   0  0  0  0  0  0  0  0  0  0  0  0
    3.6584   -0.4971   -2.0402 C   0  0  0  0  0  0  0  0  0  0  0  0
    2.4664   -0.2056   -1.4973 N   0  0  0  0  0  0  0  0  0  0  0  0
   -3.3116   -0.4417   -1.3997 C   0  0  0  0  0  0  0  0  0  0  0  0
   -3.8093   -1.8996   -1.2746 C   0  0  0  0  0  0  0  0  0  0  0  0
   -2.3095   -0.4402   -2.5144 C   0  0  0  0  0  0  0  0  0  0  0  0
  1  2  1  0
  2  3  1  0
  2  4  1  0
  4  5  1  0
  5  6  1  0
  7  6  1  6
  7  8  1  0
  8  9  1  0
  8 10  2  0
  7 11  1  0
 11 12  2  0
 12 13  1  0
 13 14  2  0
 14 15  1  0
 15 16  2  0
  7 17  1  0
 17 18  2  0
 18 19  1  0
 19 20  2  0
 20 21  1  0
 21 22  2  0
  4 23  1  0
 23 24  1  0
 23 25  1  0
 16 11  1  0
 22 17  1  0
M  END
>  <zinc_id>  (1) 
ZINC000001530618

>  <smiles>  (1) 
CC(C)N(CC[C@](C(N)=O)(c1ccccc1)c1ccccn1)C(C)C

$$$$
