
     RDKit          2D

 27 28  0  0  0  0  0  0  0  0999 V2000
   -9.1758    0.6826    0.0000 C   0  0  0  0  0  0  0  0  0  0  0  0
   -7.6941    0.9161    0.0000 C   0  0  0  0  0  0  0  0  0  0  0  0
   -6.7511   -0.2504    0.0000 C   0  0  0  0  0  0  0  0  0  0  0  0
   -5.2693   -0.0169    0.0000 C   0  0  0  0  0  0  0  0  0  0  0  0
   -4.2095   -1.0784    0.0000 C   0  0  0  0  0  0  0  0  0  0  0  0
   -2.8725   -0.3985    0.0000 C   0  0  0  0  0  0  0  0  0  0  0  0
   -1.5365   -1.0806    0.0000 C   0  0  0  0  0  0  0  0  0  0  0  0
   -1.4592   -2.5786    0.0000 O   0  0  0  0  0  0  0  0  0  0  0  0
   -0.2778   -0.2646    0.0000 N   0  0  0  0  0  0  0  0  0  0  0  0
    1.0581   -0.9467    0.0000 C   0  0  0  0  0  0  0  0  0  0  0  0
    1.1354   -2.4447    0.0000 C   0  0  0  0  0  0  0  0  0  0  0  0
   -0.1232   -3.2607    0.0000 C   0  0  0  0  0  0  0  0  0  0  0  0
    2.4714   -3.1268    0.0000 O   0  0  0  0  0  0  0  0  0  0  0  0
    2.3168   -0.1308    0.0000 C   0  0  0  0  0  0  0  0  0  0  0  0
    3.6527   -0.8128    0.0000 O   0  0  0  0  0  0  0  0  0  0  0  0
    4.9114    0.0031    0.0000 C   0  0  0  0  0  0  0  0  0  0  0  0
    6.2474   -0.6789    0.0000 S   0  0  0  0  0  0  0  0  0  0  0  0
    6.3247   -2.1769    0.0000 C   0  0  0  0  0  0  0  0  0  0  0  0
    4.8341    1.5011    0.0000 C   0  0  0  0  0  0  0  0  0  0  0  0
    6.0928    2.3171    0.0000 O   0  0  0  0  0  0  0  0  0  0  0  0
    3.4981    2.1832    0.0000 C   0  0  0  0  0  0  0  0  0  0  0  0
    3.4208    3.6812    0.0000 O   0  0  0  0  0  0  0  0  0  0  0  0
    2.2395    1.3673    0.0000 C   0  0  0  0  0  0  0  0  0  0  0  0
    0.9035    2.0493    0.0000 O   0  0  0  0  0  0  0  0  0  0  0  0
   -3.1059    1.0832    0.0000 N   0  0  0  0  0  0  0  0  0  0  0  0
   -2.0444    2.1430    0.0000 C   0  0  0  0  0  0  0  0  0  0  0  0
   -4.5873    1.3190    0.0000 C   0  0  0  0  0  0  0  0  0  0  0  0
  1  2  1  0
  2  3  1  0
  4  3  1  1
  4  5  1  0
  5  6  1  0
  6  7  1  1
  7  8  2  0
  7  9  1  0
 10  9  1  1
 10 11  1  0
 11 12  1  6
 11 13  1  0
 10 14  1  0
 14 15  1  6
 15 16  1  0
 16 17  1  1
 17 18  1  0
 16 19  1  0
 19 20  1  1
 19 21  1  0
 21 22  1  6
 21 23  1  0
 23 24  1  6
  6 25  1  0
 25 26  1  0
 25 27  1  0
 27  4  1  0
 23 14  1  0
M  END
>  <zinc_id>  (1) 
ZINC000004097283

>  <smiles>  (1) 
CCC[C@@H]1C[C@H](C(=O)N[C@H]([C@@H](C)O)[C@H]2O[C@H](SC)[C@H](O)[C@@H](O)[C@H]2O)N(C)C1

$$$$
