
     RDKit          3D

 28 31  0  0  0  0  0  0  0  0999 V2000
   -2.6083    1.1677   -1.4499 O   0  0  0  0  0  0  0  0  0  0  0  0
   -3.3252    0.7027   -0.5479 C   0  0  0  0  0  0  0  0  0  0  0  0
   -4.6603    1.2717   -0.3060 C   0  0  0  0  0  0  0  0  0  0  0  0
   -5.7131    0.3158    0.1019 C   0  0  0  0  0  0  0  0  0  0  0  0
   -6.8397    1.0995    0.7793 C   0  0  0  0  0  0  0  0  0  0  0  0
   -7.9000    0.0256    0.9006 C   0  0  0  0  0  0  0  0  0  0  0  0
   -7.6992   -0.8533   -0.3147 C   0  0  0  0  0  0  0  0  0  0  0  0
   -6.4851   -0.3070   -1.0455 C   0  0  0  0  0  0  0  0  0  0  0  0
   -5.3064   -0.7502    1.0673 C   0  0  0  0  0  0  0  0  0  0  0  0
   -3.8410   -0.9267    1.1655 C   0  0  0  0  0  0  0  0  0  0  0  0
   -3.4371   -1.6419    2.1479 O   0  0  0  0  0  0  0  0  0  0  0  0
   -2.8974   -0.3715    0.2689 N   0  0  0  0  0  0  0  0  0  0  0  0
   -1.5231   -0.8856    0.1859 C   0  0  0  0  0  0  0  0  0  0  0  0
   -0.6122   -0.1638    1.1132 C   0  0  0  0  0  0  0  0  0  0  0  0
    0.7638   -0.7385    1.0409 C   0  0  0  0  0  0  0  0  0  0  0  0
    1.4437   -0.7002   -0.2731 C   0  0  0  0  0  0  0  0  0  0  0  0
    1.6262    0.6160   -0.8446 N   0  0  0  0  0  0  0  0  0  0  0  0
    2.4469    0.5300   -2.0551 C   0  0  0  0  0  0  0  0  0  0  0  0
    3.7623   -0.1371   -1.7597 C   0  0  0  0  0  0  0  0  0  0  0  0
    4.3313    0.2332   -0.4998 N   0  0  0  0  0  0  0  0  0  0  0  0
    5.7406    0.3111   -0.3106 C   0  0  0  0  0  0  0  0  0  0  0  0
    6.6396   -0.0435   -1.2452 N   0  0  0  0  0  0  0  0  0  0  0  0
    7.9827    0.0361   -1.0549 C   0  0  0  0  0  0  0  0  0  0  0  0
    8.4643    0.5008    0.1495 C   0  0  0  0  0  0  0  0  0  0  0  0
    7.5651    0.8662    1.1152 C   0  0  0  0  0  0  0  0  0  0  0  0
    6.2505    0.7674    0.8723 N   0  0  0  0  0  0  0  0  0  0  0  0
    3.4866    0.5247    0.6254 C   0  0  0  0  0  0  0  0  0  0  0  0
    2.3449    1.3983    0.1735 C   0  0  0  0  0  0  0  0  0  0  0  0
  1  2  2  0
  2  3  1  0
  3  4  1  0
  4  5  1  0
  5  6  1  0
  6  7  1  0
  7  8  1  0
  4  9  1  0
  9 10  1  0
 10 11  2  0
 10 12  1  0
 12 13  1  0
 13 14  1  0
 14 15  1  0
 15 16  1  0
 16 17  1  0
 17 18  1  0
 18 19  1  0
 19 20  1  0
 20 21  1  0
 21 22  2  0
 22 23  1  0
 23 24  2  0
 24 25  1  0
 25 26  2  0
 20 27  1  0
 27 28  1  0
 12  2  1  0
 28 17  1  0
  8  4  1  0
 26 21  1  0
M  END
>  <zinc_id>  (1) 
ZINC000001530571

>  <smiles>  (1) 
O=C1CC2(CCCC2)CC(=O)N1CCCCN1CCN(c2ncccn2)CC1

$$$$
