
     RDKit          3D

 28 29  0  0  0  0  0  0  0  0999 V2000
    1.6582   -1.5216   -0.3318 O   0  0  0  0  0  0  0  0  0  0  0  0
    1.1667   -0.4651   -0.3523 C   0  0  0  0  0  0  0  0  0  0  0  0
    1.7802    0.5409   -1.1461 N   0  0  0  0  0  0  0  0  0  0  0  0
    3.0003    0.2676   -1.9233 C   0  0  0  0  0  0  0  0  0  0  0  0
    2.4365   -0.9400   -2.8991 C   0  0  1  0  0  0  0  0  0  0  0  0
    1.2826   -0.0337   -3.5671 C   0  0  0  0  0  0  0  0  0  0  0  0
    1.9344    1.2867   -3.9613 C   0  0  0  0  0  0  0  0  0  0  0  0
    2.5608    0.9724   -5.3699 C   0  0  0  0  0  0  0  0  0  0  0  0
    2.9284   -0.5444   -5.2667 C   0  0  0  0  0  0  0  0  0  0  0  0
    3.5272   -0.7562   -3.9703 N   0  0  0  0  0  0  0  0  0  0  0  0
   -0.0383   -0.1947    0.4151 C   0  0  0  0  0  0  0  0  0  0  0  0
   -0.6622   -1.1403    1.1952 C   0  0  0  0  0  0  0  0  0  0  0  0
   -1.8006   -0.9095    1.9290 C   0  0  0  0  0  0  0  0  0  0  0  0
   -2.3486   -1.9292    2.6808 O   0  0  0  0  0  0  0  0  0  0  0  0
   -1.7458   -3.1808    2.6904 C   0  0  0  0  0  0  0  0  0  0  0  0
   -2.4175   -4.1996    3.5305 C   0  0  0  0  0  0  0  0  0  0  0  0
   -3.7005   -4.4377    3.1401 F   0  0  0  0  0  0  0  0  0  0  0  0
   -2.3372   -3.7813    4.8613 F   0  0  0  0  0  0  0  0  0  0  0  0
   -1.6686   -5.3746    3.4625 F   0  0  0  0  0  0  0  0  0  0  0  0
   -2.3513    0.3644    1.8742 C   0  0  0  0  0  0  0  0  0  0  0  0
   -1.7390    1.3150    1.1007 C   0  0  0  0  0  0  0  0  0  0  0  0
   -0.5920    1.0771    0.3633 C   0  0  0  0  0  0  0  0  0  0  0  0
    0.0596    1.9764   -0.4236 O   0  0  0  0  0  0  0  0  0  0  0  0
   -0.2342    3.2692   -0.6587 C   0  0  0  0  0  0  0  0  0  0  0  0
   -0.2272    4.2723    0.4144 C   0  0  0  0  0  0  0  0  0  0  0  0
    1.0715    4.2898    0.9647 F   0  0  0  0  0  0  0  0  0  0  0  0
   -0.3921    5.5696   -0.1469 F   0  0  0  0  0  0  0  0  0  0  0  0
   -1.1515    4.2073    1.3952 F   0  0  0  0  0  0  0  0  0  0  0  0
  1  2  2  0
  2  3  1  0
  3  4  1  0
  5  4  1  1
  5  6  1  0
  6  7  1  0
  7  8  1  0
  8  9  1  0
  9 10  1  0
  2 11  1  0
 11 12  2  0
 12 13  1  0
 13 14  1  0
 14 15  1  0
 15 16  1  0
 16 17  1  0
 16 18  1  0
 16 19  1  0
 13 20  2  0
 20 21  1  0
 21 22  2  0
 22 23  1  0
 23 24  1  0
 24 25  1  0
 25 26  1  0
 25 27  1  0
 25 28  1  0
 10  5  1  0
 22 11  1  0
M  END
>  <zinc_id>  (1) 
ZINC000000896543

>  <smiles>  (1) 
O=C(NC[C@H]1CCCCN1)c1cc(OCC(F)(F)F)ccc1OCC(F)(F)F

$$$$
