
     RDKit          3D

 29 31  0  0  0  0  0  0  0  0999 V2000
    5.3854   -2.7945    0.1050 C   0  0  0  0  0  0  0  0  0  0  0  0
    4.9561   -1.5538    0.3931 O   0  0  0  0  0  0  0  0  0  0  0  0
    3.6259   -1.1893    0.2551 C   0  0  0  0  0  0  0  0  0  0  0  0
    2.6511   -2.0590   -0.1826 C   0  0  0  0  0  0  0  0  0  0  0  0
    1.3757   -1.6018   -0.2845 C   0  0  0  0  0  0  0  0  0  0  0  0
    1.0554   -0.2625    0.0504 C   0  0  0  0  0  0  0  0  0  0  0  0
    1.9929    0.5948    0.4808 C   0  0  0  0  0  0  0  0  0  0  0  0
    1.8399    1.9035    0.8510 O   0  0  0  0  0  0  0  0  0  0  0  0
    1.5927    2.2879    2.1960 C   0  0  0  0  0  0  0  0  0  0  0  0
    3.3016    0.1117    0.5803 C   0  0  0  0  0  0  0  0  0  0  0  0
    4.2682    0.9691    1.0132 O   0  0  0  0  0  0  0  0  0  0  0  0
    4.9573    1.7380    0.0285 C   0  0  0  0  0  0  0  0  0  0  0  0
   -0.2413    0.3766   -0.0611 C   0  0  0  0  0  0  0  0  0  0  0  0
   -0.0516    1.6331   -0.5078 C   0  0  0  0  0  0  0  0  0  0  0  0
   -0.9883    2.6291   -0.6629 C   0  0  0  0  0  0  0  0  0  0  0  0
   -2.2784    2.6717   -0.1120 C   0  0  0  0  0  0  0  0  0  0  0  0
   -2.8858    3.8989    0.0302 O   0  0  0  0  0  0  0  0  0  0  0  0
   -2.2748    5.1030   -0.3497 C   0  0  0  0  0  0  0  0  0  0  0  0
   -3.0521    1.6012    0.3248 C   0  0  0  0  0  0  0  0  0  0  0  0
   -4.2433    1.9085    0.5617 O   0  0  0  0  0  0  0  0  0  0  0  0
   -2.6562    0.2681    0.5202 C   0  0  0  0  0  0  0  0  0  0  0  0
   -1.4372   -0.2095    0.1958 C   0  0  0  0  0  0  0  0  0  0  0  0
   -1.7039   -1.8039    0.1605 C   0  0  1  0  0  0  0  0  0  0  0  0
   -3.0656   -1.6599   -0.6395 N   0  0  0  0  0  0  0  0  0  0  0  0
   -3.6707   -2.9149   -0.8823 C   0  0  0  0  0  0  0  0  0  0  0  0
   -4.9819   -3.0240   -1.6314 C   0  0  0  0  0  0  0  0  0  0  0  0
   -3.0949   -3.9422   -0.4616 O   0  0  0  0  0  0  0  0  0  0  0  0
   -0.8180   -2.0243   -1.2320 C   0  0  0  0  0  0  0  0  0  0  0  0
    0.4419   -2.6556   -0.7391 C   0  0  0  0  0  0  0  0  0  0  0  0
  1  2  1  0
  2  3  1  0
  3  4  2  0
  4  5  1  0
  5  6  2  0
  6  7  1  0
  7  8  1  0
  8  9  1  0
  7 10  2  0
 10 11  1  0
 11 12  1  0
  6 13  1  0
 13 14  2  0
 14 15  1  0
 15 16  2  0
 16 17  1  0
 17 18  1  0
 16 19  1  0
 19 20  2  0
 19 21  1  0
 21 22  2  0
 22 23  1  0
 23 24  1  6
 24 25  1  0
 25 26  1  0
 25 27  2  0
 23 28  1  0
 28 29  1  0
 10  3  1  0
 22 13  1  0
 29  5  1  0
M  END
>  <zinc_id>  (1) 
ZINC000000621853

>  <smiles>  (1) 
COc1cc2c(c(OC)c1OC)-c1ccc(OC)c(=O)cc1[C@@H](NC(C)=O)CC2

$$$$
