
     RDKit          3D

 25 27  0  0  0  0  0  0  0  0999 V2000
    5.2990    3.2106   -0.1466 C   0  0  0  0  0  0  0  0  0  0  0  0
    5.0514    2.8414   -0.0463 C   0  0  0  0  0  0  0  0  0  0  0  0
    4.3805    1.5492    0.3394 C   0  0  0  0  0  0  0  0  0  0  0  0
    3.8860    1.3914    1.5992 C   0  0  0  0  0  0  0  0  0  0  0  0
    3.2713    0.2101    1.9563 C   0  0  0  0  0  0  0  0  0  0  0  0
    3.1816   -0.7802    1.0045 C   0  0  0  0  0  0  0  0  0  0  0  0
    2.5123   -2.0663    1.3932 C   0  0  0  0  0  0  0  0  0  0  0  0
    2.5438   -2.9764    0.1833 C   0  0  0  0  0  0  0  0  0  0  0  0
    1.8459   -2.3320   -0.8633 O   0  0  0  0  0  0  0  0  0  0  0  0
    0.5164   -2.0092   -0.6756 C   0  0  0  0  0  0  0  0  0  0  0  0
   -0.1277   -2.3044    0.5042 C   0  0  0  0  0  0  0  0  0  0  0  0
   -1.4511   -1.9946    0.7191 C   0  0  0  0  0  0  0  0  0  0  0  0
   -2.1665   -1.3665   -0.2755 C   0  0  0  0  0  0  0  0  0  0  0  0
   -3.5969   -1.0604    0.0244 C   0  0  0  0  0  0  0  0  0  0  0  0
   -3.6572    0.3811    0.6812 C   0  0  1  0  0  0  0  0  0  0  0  0
   -2.8822    1.2864   -0.8284 S   0  0  0  0  0  0  0  0  0  0  0  0
   -4.2323    2.4285   -1.0609 C   0  0  0  0  0  0  0  0  0  0  0  0
   -4.2231    3.3448   -1.9304 O   0  0  0  0  0  0  0  0  0  0  0  0
   -5.2019    2.0698   -0.1152 N   0  0  0  0  0  0  0  0  0  0  0  0
   -5.0941    0.7423    0.2906 C   0  0  0  0  0  0  0  0  0  0  0  0
   -6.0252   -0.1040    0.3531 O   0  0  0  0  0  0  0  0  0  0  0  0
   -1.5632   -1.0573   -1.4593 C   0  0  0  0  0  0  0  0  0  0  0  0
   -0.2371   -1.3799   -1.6451 C   0  0  0  0  0  0  0  0  0  0  0  0
    3.6807   -0.5881   -0.2267 N   0  0  0  0  0  0  0  0  0  0  0  0
    4.2894    0.5637   -0.6024 C   0  0  0  0  0  0  0  0  0  0  0  0
  1  2  1  0
  2  3  1  0
  3  4  2  0
  4  5  1  0
  5  6  2  0
  6  7  1  0
  7  8  1  0
  8  9  1  0
  9 10  1  0
 10 11  2  0
 11 12  1  0
 12 13  2  0
 13 14  1  0
 15 14  1  6
 15 16  1  0
 16 17  1  0
 17 18  2  0
 17 19  1  0
 19 20  1  0
 20 21  2  0
 13 22  1  0
 22 23  2  0
  6 24  1  0
 24 25  2  0
 25  3  1  0
 23 10  1  0
 20 15  1  0
M  END
>  <zinc_id>  (1) 
ZINC000000968327

>  <smiles>  (1) 
CCc1ccc(CCOc2ccc(C[C@H]3SC(=O)NC3=O)cc2)nc1

$$$$
