
     RDKit          3D

 21 22  0  0  0  0  0  0  0  0999 V2000
    1.6699   -2.5402    2.0549 C   0  0  0  0  0  0  0  0  0  0  0  0
    1.0247   -2.7490    0.9164 C   0  0  0  0  0  0  0  0  0  0  0  0
    0.6713   -1.6147    0.1034 N   0  0  0  0  0  0  0  0  0  0  0  0
    1.6425   -1.2156   -0.8741 C   0  0  0  0  0  0  0  0  0  0  0  0
    2.6161   -0.2292   -0.4140 C   0  0  0  0  0  0  0  0  0  0  0  0
    3.5741    0.1474   -1.3628 C   0  0  0  0  0  0  0  0  0  0  0  0
    4.5567    1.0631   -1.0885 C   0  0  0  0  0  0  0  0  0  0  0  0
    4.5983    1.6155    0.1334 N   0  0  0  0  0  0  0  0  0  0  0  0
    3.6920    1.2705    1.0576 C   0  0  0  0  0  0  0  0  0  0  0  0
    2.6930    0.3500    0.8035 C   0  0  0  0  0  0  0  0  0  0  0  0
   -0.5840   -0.9963    0.3282 C   0  0  0  0  0  0  0  0  0  0  0  0
   -1.3811   -1.3575    1.1588 O   0  0  0  0  0  0  0  0  0  0  0  0
   -0.8613    0.2538   -0.6383 C   0  0  1  0  0  0  0  0  0  0  0  0
   -1.4243   -0.6826   -1.8751 C   0  0  0  0  0  0  0  0  0  0  0  0
   -1.7243    0.2820   -2.8427 O   0  0  0  0  0  0  0  0  0  0  0  0
   -2.2686    0.6814   -0.0803 C   0  0  0  0  0  0  0  0  0  0  0  0
   -3.3313    0.7786   -0.9252 C   0  0  0  0  0  0  0  0  0  0  0  0
   -4.5717    1.1781   -0.4113 C   0  0  0  0  0  0  0  0  0  0  0  0
   -4.6730    1.4600    0.9379 C   0  0  0  0  0  0  0  0  0  0  0  0
   -3.5789    1.3536    1.7749 C   0  0  0  0  0  0  0  0  0  0  0  0
   -2.3402    0.9512    1.2433 C   0  0  0  0  0  0  0  0  0  0  0  0
  1  2  1  0
  2  3  1  0
  3  4  1  0
  4  5  1  0
  5  6  2  0
  6  7  1  0
  7  8  2  0
  8  9  1  0
  9 10  2  0
  3 11  1  0
 11 12  2  0
 11 13  1  0
 13 14  1  6
 14 15  1  0
 13 16  1  0
 16 17  2  0
 17 18  1  0
 18 19  2  0
 19 20  1  0
 20 21  2  0
 10  5  1  0
 21 16  1  0
M  END
>  <zinc_id>  (1) 
ZINC000000057532

>  <smiles>  (1) 
CCN(Cc1ccncc1)C(=O)[C@@H](CO)c1ccccc1

$$$$
