
     RDKit          3D

 11 10  0  0  0  0  0  0  0  0999 V2000
   -1.9312   -1.5797    0.6087 C   0  0  0  0  0  0  0  0  0  0  0  0
   -2.1027   -0.3910   -0.1128 N   0  0  0  0  0  0  0  0  0  0  0  0
   -3.2023   -0.6385   -1.0583 C   0  0  0  0  0  0  0  0  0  0  0  0
   -2.5603    0.7177    0.7097 C   0  0  0  0  0  0  0  0  0  0  0  0
   -0.9659   -0.0447   -0.9290 C   0  0  0  0  0  0  0  0  0  0  0  0
    0.3485   -0.4748    0.0069 C   0  0  2  0  0  0  0  0  0  0  0  0
   -0.0523    0.4838    1.1406 O   0  0  0  0  0  0  0  0  0  0  0  0
    1.3257    0.6654   -0.7176 C   0  0  0  0  0  0  0  0  0  0  0  0
    2.6350    0.5197   -0.0602 C   0  0  0  0  0  0  0  0  0  0  0  0
    2.8077   -0.3328    0.8374 O   0  0  0  0  0  0  0  0  0  0  0  0
    3.6979    1.3250   -0.4253 O   0  0  0  0  0  0  0  0  0  0  0  0
  1  2  1  0
  2  3  1  0
  2  4  1  0
  2  5  1  0
  5  6  1  0
  6  7  1  1
  6  8  1  0
  8  9  1  0
  9 10  2  0
  9 11  1  0
M  CHG  1   2   1
M  END
>  <zinc_id>  (1) 
ZINC000003079340

>  <smiles>  (1) 
C[N+](C)(C)C[C@H](O)CC(=O)O

$$$$
