
     RDKit          3D

 21 22  0  0  0  0  0  0  0  0999 V2000
   -5.3007   -0.0304    0.1650 C   0  0  0  0  0  0  0  0  0  0  0  0
   -5.3638   -0.0945    0.0879 C   0  0  0  0  0  0  0  0  0  0  0  0
   -5.5282    0.9497   -1.0208 C   0  0  0  0  0  0  0  0  0  0  0  0
   -5.0673   -1.4859   -0.4515 C   0  0  0  0  0  0  0  0  0  0  0  0
   -4.4653    0.3420    1.1656 N   0  0  0  0  0  0  0  0  0  0  0  0
   -3.4072    1.0880    0.5718 C   0  0  0  0  0  0  0  0  0  0  0  0
   -2.4732    0.0122   -0.2877 C   0  0  2  0  0  0  0  0  0  0  0  0
   -2.1430   -0.7851    0.9779 O   0  0  0  0  0  0  0  0  0  0  0  0
   -1.1533    0.9595   -0.1348 C   0  0  0  0  0  0  0  0  0  0  0  0
   -0.0441    0.1088   -0.1631 O   0  0  0  0  0  0  0  0  0  0  0  0
    1.1961    0.7057   -0.0554 C   0  0  0  0  0  0  0  0  0  0  0  0
    1.3091    2.0592    0.0675 C   0  0  0  0  0  0  0  0  0  0  0  0
    2.5617    2.6299    0.1732 C   0  0  0  0  0  0  0  0  0  0  0  0
    3.6850    1.8348    0.1546 C   0  0  0  0  0  0  0  0  0  0  0  0
    3.5793    0.4561    0.0305 C   0  0  0  0  0  0  0  0  0  0  0  0
    2.3353   -0.0968   -0.0739 C   0  0  0  0  0  0  0  0  0  0  0  0
    2.1223   -1.5730   -0.2224 C   0  0  0  0  0  0  0  0  0  0  0  0
    3.2604   -2.4213    0.1988 C   0  0  0  0  0  0  0  0  0  0  0  0
    4.5851   -1.7754   -0.0724 C   0  0  0  0  0  0  0  0  0  0  0  0
    5.5728   -2.5169   -0.3987 O   0  0  0  0  0  0  0  0  0  0  0  0
    4.7390   -0.3665    0.0329 N   0  0  0  0  0  0  0  0  0  0  0  0
  1  2  1  0
  2  3  1  0
  2  4  1  0
  2  5  1  0
  5  6  1  0
  6  7  1  0
  7  8  1  1
  7  9  1  0
  9 10  1  0
 10 11  1  0
 11 12  2  0
 12 13  1  0
 13 14  2  0
 14 15  1  0
 15 16  2  0
 16 17  1  0
 17 18  1  0
 18 19  1  0
 19 20  2  0
 19 21  1  0
 16 11  1  0
 21 15  1  0
M  END
>  <zinc_id>  (1) 
ZINC000000896463

>  <smiles>  (1) 
CC(C)(C)NC[C@H](O)COc1cccc2c1CCC(=O)N2

$$$$
