
     RDKit          3D

 24 26  0  0  0  0  0  0  0  0999 V2000
    6.7320   -1.1811   -0.2071 Cl  0  0  0  0  0  0  0  0  0  0  0  0
    5.3699   -0.4150   -0.0807 C   0  0  0  0  0  0  0  0  0  0  0  0
    4.3005   -0.5879   -0.9674 C   0  0  0  0  0  0  0  0  0  0  0  0
    3.1130    0.1113   -0.8275 C   0  0  0  0  0  0  0  0  0  0  0  0
    2.9162    1.0040    0.1767 C   0  0  0  0  0  0  0  0  0  0  0  0
    1.7111    1.8094    0.3943 C   0  0  0  0  0  0  0  0  0  0  0  0
    0.4776    1.0387    1.4088 S   0  0  0  0  0  0  0  0  0  0  0  0
   -0.3555   -0.3456    0.3328 C   0  0  1  0  0  0  0  0  0  0  0  0
   -1.1454   -0.9342    1.6277 C   0  0  0  0  0  0  0  0  0  0  0  0
   -1.9222   -2.0520    1.2080 N   0  0  0  0  0  0  0  0  0  0  0  0
   -3.1848   -2.1078    0.7629 C   0  0  0  0  0  0  0  0  0  0  0  0
   -3.5348   -3.3986    0.4601 C   0  0  0  0  0  0  0  0  0  0  0  0
   -2.4614   -4.1469    0.7270 N   0  0  0  0  0  0  0  0  0  0  0  0
   -1.4799   -3.3361    1.1815 C   0  0  0  0  0  0  0  0  0  0  0  0
   -1.5084    0.6142   -0.1622 C   0  0  0  0  0  0  0  0  0  0  0  0
   -2.4854    1.0696    0.6441 C   0  0  0  0  0  0  0  0  0  0  0  0
   -3.4397    1.9386    0.1770 C   0  0  0  0  0  0  0  0  0  0  0  0
   -3.4203    2.3639   -1.1238 C   0  0  0  0  0  0  0  0  0  0  0  0
   -4.6599    3.4746   -1.7354 Cl  0  0  0  0  0  0  0  0  0  0  0  0
   -2.4298    1.9061   -1.9524 C   0  0  0  0  0  0  0  0  0  0  0  0
   -1.4733    1.0298   -1.4710 C   0  0  0  0  0  0  0  0  0  0  0  0
   -0.2329    0.4424   -2.5930 Cl  0  0  0  0  0  0  0  0  0  0  0  0
    3.9673    1.2090    1.0930 C   0  0  0  0  0  0  0  0  0  0  0  0
    5.1462    0.4937    0.9267 C   0  0  0  0  0  0  0  0  0  0  0  0
  1  2  1  0
  2  3  2  0
  3  4  1  0
  4  5  2  0
  5  6  1  0
  6  7  1  0
  7  8  1  0
  8  9  1  1
  9 10  1  0
 10 11  1  0
 11 12  2  0
 12 13  1  0
 13 14  2  0
  8 15  1  0
 15 16  2  0
 16 17  1  0
 17 18  2  0
 18 19  1  0
 18 20  1  0
 20 21  2  0
 21 22  1  0
  5 23  1  0
 23 24  2  0
 24  2  1  0
 14 10  1  0
 21 15  1  0
M  END
>  <zinc_id>  (1) 
ZINC000003873371

>  <smiles>  (1) 
Clc1ccc(CS[C@@H](Cn2ccnc2)c2ccc(Cl)cc2Cl)cc1

$$$$
