
     RDKit          3D

 24 25  0  0  0  0  0  0  0  0999 V2000
   -0.7333   -1.5699    0.0616 C   0  0  0  0  0  0  0  0  0  0  0  0
   -1.8018   -0.3701   -0.0681 C   0  0  2  0  0  0  0  0  0  0  0  0
   -1.7297   -0.3277   -1.7066 C   0  0  0  0  0  0  0  0  0  0  0  0
   -2.7114    0.7874   -1.9750 C   0  0  0  0  0  0  0  0  0  0  0  0
   -4.0062    0.3539   -1.4234 C   0  0  0  0  0  0  0  0  0  0  0  0
   -4.8628   -0.3444   -2.2386 C   0  0  0  0  0  0  0  0  0  0  0  0
   -6.1050   -0.7702   -1.7448 C   0  0  0  0  0  0  0  0  0  0  0  0
   -6.3810   -0.4469   -0.4431 C   0  0  0  0  0  0  0  0  0  0  0  0
   -5.5449    0.2519    0.4002 C   0  0  0  0  0  0  0  0  0  0  0  0
   -4.3144    0.6617   -0.1223 C   0  0  0  0  0  0  0  0  0  0  0  0
   -0.7498    0.7614    0.0562 N   0  0  0  0  0  0  0  0  0  0  0  0
   -0.2240    0.5651    1.3582 C   0  0  0  0  0  0  0  0  0  0  0  0
    0.7996    1.8082    1.6303 C   0  0  1  0  0  0  0  0  0  0  0  0
    1.1516    1.3300    3.0219 O   0  0  0  0  0  0  0  0  0  0  0  0
    2.0456    1.1745    0.9048 C   0  0  0  0  0  0  0  0  0  0  0  0
    2.6143    1.9571   -0.0750 C   0  0  0  0  0  0  0  0  0  0  0  0
    3.7208    1.5228   -0.7705 C   0  0  0  0  0  0  0  0  0  0  0  0
    4.2385    0.3011   -0.4658 C   0  0  0  0  0  0  0  0  0  0  0  0
    5.3579   -0.2409   -1.1060 O   0  0  0  0  0  0  0  0  0  0  0  0
    3.6814   -0.4882    0.5080 C   0  0  0  0  0  0  0  0  0  0  0  0
    4.2060   -1.8029    0.8653 C   0  0  0  0  0  0  0  0  0  0  0  0
    3.5819   -2.5539    1.8738 N   0  0  0  0  0  0  0  0  0  0  0  0
    5.1961   -2.2628    0.2878 O   0  0  0  0  0  0  0  0  0  0  0  0
    2.5706    0.0050    1.1710 C   0  0  0  0  0  0  0  0  0  0  0  0
  2  1  1  1
  2  3  1  0
  3  4  1  0
  4  5  1  0
  5  6  2  0
  6  7  1  0
  7  8  2  0
  8  9  1  0
  9 10  2  0
  2 11  1  0
 11 12  1  0
 12 13  1  0
 13 14  1  1
 13 15  1  0
 15 16  2  0
 16 17  1  0
 17 18  2  0
 18 19  1  0
 18 20  1  0
 20 21  1  0
 21 22  1  0
 21 23  2  0
 20 24  2  0
 10  5  1  0
 24 15  1  0
M  END
>  <zinc_id>  (1) 
ZINC000000000416

>  <smiles>  (1) 
C[C@H](CCc1ccccc1)NC[C@@H](O)c1ccc(O)c(C(N)=O)c1

$$$$
