
     RDKit          3D

 20 21  0  0  0  0  0  0  0  0999 V2000
   -1.8293   -0.0023    2.5950 C   0  0  0  0  0  0  0  0  0  0  0  0
   -2.1491    0.8748    1.4763 C   0  0  0  0  0  0  0  0  0  0  0  0
   -3.4581    1.3602    1.3488 C   0  0  0  0  0  0  0  0  0  0  0  0
   -3.8208    2.2004    0.3216 C   0  0  0  0  0  0  0  0  0  0  0  0
   -2.8731    2.5711   -0.6013 C   0  0  0  0  0  0  0  0  0  0  0  0
   -1.5619    2.0982   -0.4929 C   0  0  0  0  0  0  0  0  0  0  0  0
   -1.2620    1.2839    0.5244 C   0  0  0  0  0  0  0  0  0  0  0  0
    0.2529    0.7098    0.6652 C   0  0  2  0  0  0  0  0  0  0  0  0
    0.8112    1.3399   -0.5875 O   0  0  0  0  0  0  0  0  0  0  0  0
    2.1332    1.0551   -0.5313 C   0  0  0  0  0  0  0  0  0  0  0  0
    2.5935   -0.3242   -0.5511 C   0  0  0  0  0  0  0  0  0  0  0  0
    3.9579   -0.5952   -0.4925 N   0  0  0  0  0  0  0  0  0  0  0  0
    4.7544   -0.2258   -1.6169 C   0  0  0  0  0  0  0  0  0  0  0  0
    4.6043   -0.5447    0.7679 C   0  0  0  0  0  0  0  0  0  0  0  0
   -0.0856   -0.7382    0.0227 C   0  0  0  0  0  0  0  0  0  0  0  0
    0.1603   -1.8314    0.7817 C   0  0  0  0  0  0  0  0  0  0  0  0
   -0.1202   -3.0794    0.2730 C   0  0  0  0  0  0  0  0  0  0  0  0
   -0.6457   -3.2315   -0.9930 C   0  0  0  0  0  0  0  0  0  0  0  0
   -0.8724   -2.0807   -1.7132 C   0  0  0  0  0  0  0  0  0  0  0  0
   -0.5893   -0.8399   -1.1971 C   0  0  0  0  0  0  0  0  0  0  0  0
  1  2  1  0
  2  3  2  0
  3  4  1  0
  4  5  2  0
  5  6  1  0
  6  7  2  0
  7  8  1  0
  8  9  1  6
  9 10  1  0
 10 11  1  0
 11 12  1  0
 12 13  1  0
 12 14  1  0
  8 15  1  0
 15 16  2  0
 16 17  1  0
 17 18  2  0
 18 19  1  0
 19 20  2  0
  7  2  1  0
 20 15  1  0
M  END
>  <zinc_id>  (1) 
ZINC000000000565

>  <smiles>  (1) 
Cc1ccccc1[C@H](OCCN(C)C)c1ccccc1

$$$$
