
     RDKit          3D

 30 31  0  0  0  0  0  0  0  0999 V2000
   -8.0671    2.2173   -0.9397 C   0  0  0  0  0  0  0  0  0  0  0  0
   -7.8841    0.9783   -0.0838 C   0  0  0  0  0  0  0  0  0  0  0  0
   -8.9246   -0.0358   -0.5846 C   0  0  0  0  0  0  0  0  0  0  0  0
   -8.2491    1.2965    1.3504 C   0  0  0  0  0  0  0  0  0  0  0  0
   -6.5339    0.3517   -0.2367 C   0  0  0  0  0  0  0  0  0  0  0  0
   -5.4080    1.2615    0.1338 C   0  0  0  0  0  0  0  0  0  0  0  0
   -5.3692    2.5280   -0.6965 C   0  0  0  0  0  0  0  0  0  0  0  0
   -5.3477    1.6343    1.5847 C   0  0  0  0  0  0  0  0  0  0  0  0
   -4.1185    0.5415   -0.1873 C   0  0  0  0  0  0  0  0  0  0  0  0
   -4.0826   -0.7441   -0.6675 C   0  0  0  0  0  0  0  0  0  0  0  0
   -2.8723   -1.3785   -0.9670 C   0  0  0  0  0  0  0  0  0  0  0  0
   -1.6772   -0.7220   -0.7887 C   0  0  0  0  0  0  0  0  0  0  0  0
   -0.4525   -1.3433   -1.0940 O   0  0  0  0  0  0  0  0  0  0  0  0
    0.7467   -0.6560   -0.9055 C   0  0  0  0  0  0  0  0  0  0  0  0
    0.9690   -0.2947    0.5300 C   0  0  0  0  0  0  0  0  0  0  0  0
    2.1531    0.3892    0.6229 O   0  0  0  0  0  0  0  0  0  0  0  0
    3.2437   -0.2489    0.1376 C   0  0  0  0  0  0  0  0  0  0  0  0
    3.5396   -1.5301    0.8334 C   0  0  0  0  0  0  0  0  0  0  0  0
    4.7241   -2.1823    0.2710 N   0  0  0  0  0  0  0  0  0  0  0  0
    4.5272   -3.5957    0.3166 C   0  0  0  0  0  0  0  0  0  0  0  0
    4.8782   -1.7165   -1.1111 C   0  0  0  0  0  0  0  0  0  0  0  0
    5.9123   -1.8356    1.0187 C   0  0  0  0  0  0  0  0  0  0  0  0
    6.5834   -0.6269    0.4719 C   0  0  0  0  0  0  0  0  0  0  0  0
    7.4602   -0.6633   -0.5670 C   0  0  0  0  0  0  0  0  0  0  0  0
    8.0207    0.5133   -0.9951 C   0  0  0  0  0  0  0  0  0  0  0  0
    7.7356    1.7479   -0.4183 C   0  0  0  0  0  0  0  0  0  0  0  0
    6.8301    1.7745    0.6489 C   0  0  0  0  0  0  0  0  0  0  0  0
    6.2861    0.5807    1.0559 C   0  0  0  0  0  0  0  0  0  0  0  0
   -1.7175    0.5684   -0.3080 C   0  0  0  0  0  0  0  0  0  0  0  0
   -2.9058    1.1906   -0.0096 C   0  0  0  0  0  0  0  0  0  0  0  0
  1  2  1  0
  2  3  1  0
  2  4  1  0
  2  5  1  0
  5  6  1  0
  6  7  1  0
  6  8  1  0
  6  9  1  0
  9 10  2  0
 10 11  1  0
 11 12  2  0
 12 13  1  0
 13 14  1  0
 14 15  1  0
 15 16  1  0
 16 17  1  0
 17 18  1  0
 18 19  1  0
 19 20  1  0
 19 21  1  0
 19 22  1  0
 22 23  1  0
 23 24  2  0
 24 25  1  0
 25 26  2  0
 26 27  1  0
 27 28  2  0
 12 29  1  0
 29 30  2  0
 30  9  1  0
 28 23  1  0
M  CHG  1  19   1
M  END
>  <zinc_id>  (1) 
ZINC000001571009

>  <smiles>  (1) 
CC(C)(C)CC(C)(C)c1ccc(OCCOCC[N+](C)(C)Cc2ccccc2)cc1

$$$$
