
     RDKit          3D

 23 24  0  0  0  0  0  0  0  0999 V2000
   -0.6257    0.2475    3.8378 C   0  0  0  0  0  0  0  0  0  0  0  0
   -0.9506    0.3989    2.4174 C   0  0  0  0  0  0  0  0  0  0  0  0
    0.2045   -0.1852    1.5817 C   0  0  0  0  0  0  0  0  0  0  0  0
    1.0860   -0.6259    2.2590 O   0  0  0  0  0  0  0  0  0  0  0  0
    0.0895   -0.1337    0.1252 C   0  0  0  0  0  0  0  0  0  0  0  0
    1.1537   -0.6233   -0.7231 C   0  0  0  0  0  0  0  0  0  0  0  0
    2.5470    0.0935   -0.5705 C   0  0  2  0  0  0  0  0  0  0  0  0
    3.2485   -0.7404   -1.8513 C   0  0  0  0  0  0  0  0  0  0  0  0
    3.1801   -1.0003    0.3953 N   0  0  0  0  0  0  0  0  0  0  0  0
    4.3938   -0.5339    0.8629 C   0  0  0  0  0  0  0  0  0  0  0  0
    3.0240   -2.2739   -0.1284 C   0  0  0  0  0  0  0  0  0  0  0  0
   -1.1651   -0.9301   -0.2854 C   0  0  0  0  0  0  0  0  0  0  0  0
   -1.1264   -1.7904   -1.3515 C   0  0  0  0  0  0  0  0  0  0  0  0
   -2.2112   -2.5168   -1.7660 C   0  0  0  0  0  0  0  0  0  0  0  0
   -3.3792   -2.3429   -1.0466 C   0  0  0  0  0  0  0  0  0  0  0  0
   -3.4495   -1.4875    0.0271 C   0  0  0  0  0  0  0  0  0  0  0  0
   -2.3369   -0.7815    0.4050 C   0  0  0  0  0  0  0  0  0  0  0  0
   -0.2842    1.2814   -0.3048 C   0  0  0  0  0  0  0  0  0  0  0  0
   -0.5986    1.4938   -1.6213 C   0  0  0  0  0  0  0  0  0  0  0  0
   -0.9375    2.7919   -2.0204 C   0  0  0  0  0  0  0  0  0  0  0  0
   -0.9461    3.8071   -1.0920 C   0  0  0  0  0  0  0  0  0  0  0  0
   -0.6267    3.5759    0.2302 C   0  0  0  0  0  0  0  0  0  0  0  0
   -0.2893    2.2756    0.6197 C   0  0  0  0  0  0  0  0  0  0  0  0
  1  2  1  0
  2  3  1  0
  3  4  2  0
  3  5  1  0
  5  6  1  0
  6  7  1  0
  7  8  1  6
  7  9  1  0
  9 10  1  0
  9 11  1  0
  5 12  1  0
 12 13  2  0
 13 14  1  0
 14 15  2  0
 15 16  1  0
 16 17  2  0
  5 18  1  0
 18 19  2  0
 19 20  1  0
 20 21  2  0
 21 22  1  0
 22 23  2  0
 17 12  1  0
 23 18  1  0
M  END
>  <zinc_id>  (1) 
ZINC000001530707

>  <smiles>  (1) 
CCC(=O)C(C[C@H](C)N(C)C)(c1ccccc1)c1ccccc1

$$$$
