
     RDKit          3D

 21 24  0  0  0  0  0  0  0  0999 V2000
    3.5167   -3.1217    1.0777 C   0  0  0  0  0  0  0  0  0  0  0  0
    2.6468   -2.1912    0.8190 O   0  0  0  0  0  0  0  0  0  0  0  0
    1.3772   -2.0173    0.4154 C   0  0  0  0  0  0  0  0  0  0  0  0
    0.4848   -3.0377    0.1066 C   0  0  0  0  0  0  0  0  0  0  0  0
   -0.8172   -2.7668   -0.3063 C   0  0  0  0  0  0  0  0  0  0  0  0
   -1.2434   -1.4510   -0.4160 C   0  0  0  0  0  0  0  0  0  0  0  0
   -0.3827   -0.4411   -0.1185 C   0  0  0  0  0  0  0  0  0  0  0  0
    0.8920   -0.7270    0.2872 C   0  0  0  0  0  0  0  0  0  0  0  0
    1.5863    0.4911    0.5430 O   0  0  0  0  0  0  0  0  0  0  0  0
    0.4336    1.3390    1.1514 C   0  0  1  0  0  0  0  0  0  0  0  0
    0.8248    2.8316    0.8644 C   0  0  0  0  0  0  0  0  0  0  0  0
    1.7896    3.2224   -0.3259 C   0  0  1  0  0  0  0  0  0  0  0  0
    2.9278    2.2726   -0.0571 O   0  0  0  0  0  0  0  0  0  0  0  0
    1.0565    2.4743   -1.5335 C   0  0  0  0  0  0  0  0  0  0  0  0
    0.1458    1.6110   -1.3317 C   0  0  0  0  0  0  0  0  0  0  0  0
   -0.4814    1.0561   -0.1608 C   0  0  1  0  0  0  0  0  0  0  0  0
   -1.8603    1.5368    0.1452 C   0  0  0  0  0  0  0  0  0  0  0  0
   -2.8892    0.9846   -0.7957 C   0  0  0  0  0  0  0  0  0  0  0  0
   -3.3505   -0.2748   -0.3712 N   0  0  0  0  0  0  0  0  0  0  0  0
   -3.9702   -0.3711    0.8821 C   0  0  0  0  0  0  0  0  0  0  0  0
   -2.6871   -1.4198   -0.8753 C   0  0  0  0  0  0  0  0  0  0  0  0
  1  2  1  0
  2  3  1  0
  3  4  2  0
  4  5  1  0
  5  6  2  0
  6  7  1  0
  7  8  2  0
  8  9  1  0
  9 10  1  0
 10 11  1  6
 11 12  1  0
 12 13  1  1
 12 14  1  0
 14 15  2  0
 16 15  1  0
 16 17  1  1
 17 18  1  0
 18 19  1  0
 19 20  1  0
 19 21  1  0
  8  3  1  0
 16 10  1  0
 21  6  1  0
 16  7  1  0
M  END
>  <zinc_id>  (1) 
ZINC000000491073

>  <smiles>  (1) 
COc1ccc2c3c1O[C@H]1C[C@@H](O)C=C[C@@]31CCN(C)C2

$$$$
