
     RDKit          3D

 20 20  0  0  0  0  0  0  0  0999 V2000
   -5.7686   -0.8186   -0.8390 N   0  0  0  0  0  0  0  0  0  0  0  0
   -5.9011   -0.8978    0.4405 C   0  0  0  0  0  0  0  0  0  0  0  0
   -7.1959   -1.0538    1.0077 N   0  0  0  0  0  0  0  0  0  0  0  0
   -4.7189   -0.8254    1.2224 N   0  0  0  0  0  0  0  0  0  0  0  0
   -3.6539   -0.0065    0.6760 C   0  0  0  0  0  0  0  0  0  0  0  0
   -2.4618    0.2233    1.2081 N   0  0  0  0  0  0  0  0  0  0  0  0
   -1.6161    0.9870    0.5853 C   0  0  0  0  0  0  0  0  0  0  0  0
   -0.2255    1.2981    1.1295 C   0  0  0  0  0  0  0  0  0  0  0  0
    0.9623    0.0792    0.5141 S   0  0  0  0  0  0  0  0  0  0  0  0
    1.1759    0.2584   -1.2670 C   0  0  0  0  0  0  0  0  0  0  0  0
    2.1405   -0.7390   -1.8429 C   0  0  0  0  0  0  0  0  0  0  0  0
    3.4572   -0.5414   -1.1792 C   0  0  0  0  0  0  0  0  0  0  0  0
    4.4428   -0.2046   -1.9623 N   0  0  0  0  0  0  0  0  0  0  0  0
    3.6502   -0.7046    0.2068 N   0  0  0  0  0  0  0  0  0  0  0  0
    4.9817    0.0451    0.9921 S   0  0  0  0  0  0  0  0  0  0  0  0
    6.3254   -1.0684    0.9212 N   0  0  0  0  0  0  0  0  0  0  0  0
    4.6766    0.2163    2.4616 O   0  0  0  0  0  0  0  0  0  0  0  0
    5.3415    1.3395    0.3488 O   0  0  0  0  0  0  0  0  0  0  0  0
   -2.0178    1.5221   -0.6142 C   0  0  0  0  0  0  0  0  0  0  0  0
   -3.5946    0.8911   -0.7739 S   0  0  0  0  0  0  0  0  0  0  0  0
  1  2  2  0
  2  3  1  0
  2  4  1  0
  4  5  1  0
  5  6  2  0
  6  7  1  0
  7  8  1  0
  8  9  1  0
  9 10  1  0
 10 11  1  0
 11 12  1  0
 12 13  2  0
 12 14  1  0
 14 15  1  0
 15 16  1  0
 15 17  2  0
 15 18  2  0
  7 19  2  0
 19 20  1  0
 20  5  1  0
M  END
>  <zinc_id>  (1) 
ZINC000001530636

>  <smiles>  (1) 
N=C(N)Nc1nc(CSCCC(=N)NS(N)(=O)=O)cs1

$$$$
