
     RDKit          3D

 22 24  0  0  0  0  0  0  0  0999 V2000
    6.7993    1.4318   -1.2698 C   0  0  0  0  0  0  0  0  0  0  0  0
    5.8406    1.0800   -0.3166 O   0  0  0  0  0  0  0  0  0  0  0  0
    5.4318   -0.2155   -0.0707 C   0  0  0  0  0  0  0  0  0  0  0  0
    5.9288   -1.1674   -0.7195 O   0  0  0  0  0  0  0  0  0  0  0  0
    4.4561   -0.4579    0.9127 N   0  0  0  0  0  0  0  0  0  0  0  0
    3.1820   -0.2987    0.6793 C   0  0  0  0  0  0  0  0  0  0  0  0
    2.6354    0.1043   -0.4839 N   0  0  0  0  0  0  0  0  0  0  0  0
    1.2969    0.1250   -0.2868 C   0  0  0  0  0  0  0  0  0  0  0  0
    0.2200    0.4506   -1.0946 C   0  0  0  0  0  0  0  0  0  0  0  0
   -1.0722    0.3868   -0.6268 C   0  0  0  0  0  0  0  0  0  0  0  0
   -1.3666   -0.0015    0.6558 C   0  0  0  0  0  0  0  0  0  0  0  0
   -2.7352   -0.0716    1.1730 C   0  0  0  0  0  0  0  0  0  0  0  0
   -2.8773   -0.1350    2.4338 O   0  0  0  0  0  0  0  0  0  0  0  0
   -3.9041   -0.0669    0.3288 C   0  0  0  0  0  0  0  0  0  0  0  0
   -5.1022    0.4225    0.8673 C   0  0  0  0  0  0  0  0  0  0  0  0
   -6.2726    0.4652    0.1401 C   0  0  0  0  0  0  0  0  0  0  0  0
   -6.2942    0.0270   -1.1459 C   0  0  0  0  0  0  0  0  0  0  0  0
   -5.1431   -0.4592   -1.7094 C   0  0  0  0  0  0  0  0  0  0  0  0
   -3.9583   -0.5030   -0.9698 C   0  0  0  0  0  0  0  0  0  0  0  0
   -0.2785   -0.3308    1.4707 C   0  0  0  0  0  0  0  0  0  0  0  0
    1.0123   -0.2657    1.0037 C   0  0  0  0  0  0  0  0  0  0  0  0
    2.2012   -0.5199    1.5709 N   0  0  0  0  0  0  0  0  0  0  0  0
  1  2  1  0
  2  3  1  0
  3  4  2  0
  3  5  1  0
  5  6  2  0
  6  7  1  0
  7  8  1  0
  8  9  2  0
  9 10  1  0
 10 11  2  0
 11 12  1  0
 12 13  2  0
 12 14  1  0
 14 15  2  0
 15 16  1  0
 16 17  2  0
 17 18  1  0
 18 19  2  0
 11 20  1  0
 20 21  2  0
 21 22  1  0
 22  6  1  0
 21  8  1  0
 19 14  1  0
M  END
>  <zinc_id>  (1) 
ZINC000000121541

>  <smiles>  (1) 
COC(=O)/N=c1\[nH]c2ccc(C(=O)c3ccccc3)cc2[nH]1

$$$$
