
     RDKit          3D

 27 28  0  0  0  0  0  0  0  0999 V2000
   -2.3526    4.3425   -0.9717 C   0  0  0  0  0  0  0  0  0  0  0  0
   -2.8382    2.9385   -0.7174 C   0  0  0  0  0  0  0  0  0  0  0  0
   -1.6599    2.0583   -0.4157 C   0  0  0  0  0  0  0  0  0  0  0  0
   -0.5027    2.5093   -0.4070 O   0  0  0  0  0  0  0  0  0  0  0  0
   -1.8610    0.6562   -0.1282 N   0  0  0  0  0  0  0  0  0  0  0  0
   -3.2157    0.2324   -0.1265 C   0  0  0  0  0  0  0  0  0  0  0  0
   -3.7563   -0.5878   -1.1059 C   0  0  0  0  0  0  0  0  0  0  0  0
   -5.0932   -0.8956   -1.0250 C   0  0  0  0  0  0  0  0  0  0  0  0
   -5.9519   -0.4540   -0.0447 C   0  0  0  0  0  0  0  0  0  0  0  0
   -5.3836    0.3649    0.9221 C   0  0  0  0  0  0  0  0  0  0  0  0
   -4.0649    0.6825    0.8634 C   0  0  0  0  0  0  0  0  0  0  0  0
   -0.6957   -0.1207    0.0811 C   0  0  0  0  0  0  0  0  0  0  0  0
   -0.8720   -1.5240    0.4680 C   0  0  0  0  0  0  0  0  0  0  0  0
   -1.9534   -1.9354    0.9142 O   0  0  0  0  0  0  0  0  0  0  0  0
    0.1716   -2.4477    0.3471 O   0  0  0  0  0  0  0  0  0  0  0  0
    0.0042   -3.8063    0.7172 C   0  0  0  0  0  0  0  0  0  0  0  0
    0.1864   -0.0547   -1.1530 C   0  0  0  0  0  0  0  0  0  0  0  0
    1.6007   -0.4984   -0.9164 C   0  0  0  0  0  0  0  0  0  0  0  0
    2.1320   -0.1649    0.3482 N   0  0  0  0  0  0  0  0  0  0  0  0
    3.4977   -0.4453    0.5445 C   0  0  0  0  0  0  0  0  0  0  0  0
    4.4504    0.3898   -0.2620 C   0  0  0  0  0  0  0  0  0  0  0  0
    5.8512   -0.0029    0.0553 C   0  0  0  0  0  0  0  0  0  0  0  0
    6.3066    0.2662    1.1942 O   0  0  0  0  0  0  0  0  0  0  0  0
    6.6590   -0.6469   -0.8569 O   0  0  0  0  0  0  0  0  0  0  0  0
    7.9910   -0.9776   -0.4494 C   0  0  0  0  0  0  0  0  0  0  0  0
    1.2815   -0.3984    1.4804 C   0  0  0  0  0  0  0  0  0  0  0  0
    0.0690    0.5200    1.2610 C   0  0  0  0  0  0  0  0  0  0  0  0
  1  2  1  0
  2  3  1  0
  3  4  2  0
  3  5  1  0
  5  6  1  0
  6  7  2  0
  7  8  1  0
  8  9  2  0
  9 10  1  0
 10 11  2  0
  5 12  1  0
 12 13  1  0
 13 14  2  0
 13 15  1  0
 15 16  1  0
 12 17  1  0
 17 18  1  0
 18 19  1  0
 19 20  1  0
 20 21  1  0
 21 22  1  0
 22 23  2  0
 22 24  1  0
 24 25  1  0
 19 26  1  0
 26 27  1  0
 11  6  1  0
 27 12  1  0
M  END
>  <zinc_id>  (1) 
ZINC000000538283

>  <smiles>  (1) 
CCC(=O)N(c1ccccc1)C1(C(=O)OC)CCN(CCC(=O)OC)CC1

$$$$
