
     RDKit          3D

 24 24  0  0  0  0  0  0  0  0999 V2000
    6.9498   -0.6189   -1.7719 C   0  0  0  0  0  0  0  0  0  0  0  0
    7.1325   -0.4666   -0.9963 C   0  0  0  0  0  0  0  0  0  0  0  0
    6.4537    0.6233   -0.2028 C   0  0  0  0  0  0  0  0  0  0  0  0
    5.0027    0.3342   -0.1640 C   0  0  0  0  0  0  0  0  0  0  0  0
    4.5196   -0.6947   -0.7469 O   0  0  0  0  0  0  0  0  0  0  0  0
    4.0742    1.1686    0.5121 N   0  0  0  0  0  0  0  0  0  0  0  0
    2.6852    0.8193    0.5029 C   0  0  0  0  0  0  0  0  0  0  0  0
    1.7391    1.5889    1.1439 C   0  0  0  0  0  0  0  0  0  0  0  0
    0.4025    1.2441    1.1284 C   0  0  0  0  0  0  0  0  0  0  0  0
   -0.0509    0.1206    0.4761 C   0  0  0  0  0  0  0  0  0  0  0  0
   -1.3785   -0.2580    0.4376 O   0  0  0  0  0  0  0  0  0  0  0  0
   -2.4029    0.4842    1.0740 C   0  0  0  0  0  0  0  0  0  0  0  0
   -3.7705   -0.4016    0.7127 C   0  0  2  0  0  0  0  0  0  0  0  0
   -3.5537   -0.2113   -0.8186 O   0  0  0  0  0  0  0  0  0  0  0  0
   -4.7554    0.9470    0.7985 C   0  0  0  0  0  0  0  0  0  0  0  0
   -5.8378    0.6088   -0.1059 N   0  0  0  0  0  0  0  0  0  0  0  0
   -6.6127   -0.4793    0.4565 C   0  0  0  0  0  0  0  0  0  0  0  0
   -7.2500   -0.0897    1.7480 C   0  0  0  0  0  0  0  0  0  0  0  0
   -7.6152   -0.9932   -0.5618 C   0  0  0  0  0  0  0  0  0  0  0  0
    0.8838   -0.6580   -0.1687 C   0  0  0  0  0  0  0  0  0  0  0  0
    0.4544   -1.8449   -0.8652 C   0  0  0  0  0  0  0  0  0  0  0  0
    1.4433   -2.6926   -1.5594 C   0  0  0  0  0  0  0  0  0  0  0  0
   -0.7556   -2.1492   -0.8767 O   0  0  0  0  0  0  0  0  0  0  0  0
    2.2425   -0.3064   -0.1524 C   0  0  0  0  0  0  0  0  0  0  0  0
  1  2  1  0
  2  3  1  0
  3  4  1  0
  4  5  2  0
  4  6  1  0
  6  7  1  0
  7  8  2  0
  8  9  1  0
  9 10  2  0
 10 11  1  0
 11 12  1  0
 12 13  1  0
 13 14  1  6
 13 15  1  0
 15 16  1  0
 16 17  1  0
 17 18  1  0
 17 19  1  0
 10 20  1  0
 20 21  1  0
 21 22  1  0
 21 23  2  0
 20 24  2  0
 24  7  1  0
M  END
>  <zinc_id>  (1) 
ZINC000000968255

>  <smiles>  (1) 
CCCC(=O)Nc1ccc(OC[C@H](O)CNC(C)C)c(C(C)=O)c1

$$$$
