
     RDKit          3D

 25 26  0  0  0  0  0  0  0  0999 V2000
    5.1371   -0.8733   -1.2458 C   0  0  0  0  0  0  0  0  0  0  0  0
    5.2192   -0.2784   -1.4634 C   0  0  0  0  0  0  0  0  0  0  0  0
    5.8793    0.4516   -2.6479 C   0  0  0  0  0  0  0  0  0  0  0  0
    4.6183    1.0300   -0.6600 C   0  0  2  0  0  0  0  0  0  0  0  0
    5.4312    0.7444    0.6451 N   0  0  0  0  0  0  0  0  0  0  0  0
    3.2705    0.3447   -0.2164 C   0  0  0  0  0  0  0  0  0  0  0  0
    2.3109    0.3512   -1.0133 O   0  0  0  0  0  0  0  0  0  0  0  0
    3.1187   -0.2407    0.9772 O   0  0  0  0  0  0  0  0  0  0  0  0
    1.9833   -0.8805    1.4916 C   0  0  0  0  0  0  0  0  0  0  0  0
    0.7888    0.2668    1.5154 C   0  0  2  0  0  0  0  0  0  0  0  0
    1.1940    0.9112    2.9856 C   0  0  0  0  0  0  0  0  0  0  0  0
    1.6445   -0.0960    3.7766 O   0  0  0  0  0  0  0  0  0  0  0  0
   -0.2522   -0.6879    2.0916 O   0  0  0  0  0  0  0  0  0  0  0  0
   -1.3994   -0.0005    2.2322 C   0  0  0  0  0  0  0  0  0  0  0  0
   -1.9988    0.5741    1.0877 N   0  0  0  0  0  0  0  0  0  0  0  0
   -1.8442    1.7809    0.5263 C   0  0  0  0  0  0  0  0  0  0  0  0
   -2.6232    1.8766   -0.5495 N   0  0  0  0  0  0  0  0  0  0  0  0
   -3.3106    0.7250   -0.7171 C   0  0  0  0  0  0  0  0  0  0  0  0
   -2.9028   -0.0959    0.3334 C   0  0  0  0  0  0  0  0  0  0  0  0
   -3.4589   -1.3156    0.3799 N   0  0  0  0  0  0  0  0  0  0  0  0
   -4.3552   -1.7928   -0.4864 C   0  0  0  0  0  0  0  0  0  0  0  0
   -4.8910   -3.1066   -0.3540 N   0  0  0  0  0  0  0  0  0  0  0  0
   -4.7372   -0.9701   -1.5044 N   0  0  0  0  0  0  0  0  0  0  0  0
   -4.2323    0.2677   -1.6291 C   0  0  0  0  0  0  0  0  0  0  0  0
   -4.5900    1.0142   -2.5671 O   0  0  0  0  0  0  0  0  0  0  0  0
  1  2  1  0
  2  3  1  0
  2  4  1  0
  4  5  1  1
  4  6  1  0
  6  7  2  0
  6  8  1  0
  8  9  1  0
 10  9  1  1
 10 11  1  0
 11 12  1  0
 10 13  1  0
 13 14  1  0
 14 15  1  0
 15 16  1  0
 16 17  2  0
 17 18  1  0
 18 19  2  0
 19 20  1  0
 20 21  2  0
 21 22  1  0
 21 23  1  0
 23 24  1  0
 24 25  2  0
 19 15  1  0
 24 18  1  0
M  END
>  <zinc_id>  (1) 
ZINC000001995484

>  <smiles>  (1) 
CC(C)[C@H](N)C(=O)OC[C@H](CO)OCn1cnc2c(=O)[nH]c(N)nc21

$$$$
