
     RDKit          3D

 33 36  0  0  0  0  0  0  0  0999 V2000
   -2.2072   -4.9170    1.2598 C   0  0  0  0  0  0  0  0  0  0  0  0
   -2.8540   -3.5543    1.3496 C   0  0  0  0  0  0  0  0  0  0  0  0
   -2.3719   -2.7247    0.1665 C   0  0  0  0  0  0  0  0  0  0  0  0
   -2.9978   -1.3618    0.2268 C   0  0  0  0  0  0  0  0  0  0  0  0
   -4.1492   -1.0888   -0.3520 N   0  0  0  0  0  0  0  0  0  0  0  0
   -4.4633    0.2236   -0.1193 C   0  0  0  0  0  0  0  0  0  0  0  0
   -5.6924    0.8973   -0.6094 C   0  0  0  0  0  0  0  0  0  0  0  0
   -6.6132    1.2075    0.5405 C   0  0  0  0  0  0  0  0  0  0  0  0
   -6.4110   -0.1018   -1.5386 C   0  0  0  0  0  0  0  0  0  0  0  0
   -5.4226    1.9909   -1.4292 O   0  0  0  0  0  0  0  0  0  0  0  0
   -3.4088    0.7097    0.6439 C   0  0  0  0  0  0  0  0  0  0  0  0
   -3.3156    2.0630    1.1559 C   0  0  0  0  0  0  0  0  0  0  0  0
   -4.1799    2.9485    0.9075 O   0  0  0  0  0  0  0  0  0  0  0  0
   -2.2763    2.5267    1.9722 O   0  0  0  0  0  0  0  0  0  0  0  0
   -2.5110   -0.2598    0.8539 N   0  0  0  0  0  0  0  0  0  0  0  0
   -1.2743   -0.3048    1.5682 C   0  0  0  0  0  0  0  0  0  0  0  0
   -0.0567   -0.1334    0.7765 C   0  0  0  0  0  0  0  0  0  0  0  0
    0.5384    1.0626    0.5576 C   0  0  0  0  0  0  0  0  0  0  0  0
    1.6865    1.1932   -0.1878 C   0  0  0  0  0  0  0  0  0  0  0  0
    2.2847    0.0676   -0.7532 C   0  0  0  0  0  0  0  0  0  0  0  0
    3.4893    0.2521   -1.5404 C   0  0  0  0  0  0  0  0  0  0  0  0
    3.3750    0.4592   -2.9256 C   0  0  0  0  0  0  0  0  0  0  0  0
    4.4715    0.6476   -3.7274 C   0  0  0  0  0  0  0  0  0  0  0  0
    5.7335    0.6370   -3.1767 C   0  0  0  0  0  0  0  0  0  0  0  0
    5.8366    0.4357   -1.8341 C   0  0  0  0  0  0  0  0  0  0  0  0
    4.7296    0.2396   -0.9871 C   0  0  0  0  0  0  0  0  0  0  0  0
    4.9368    0.0253    0.4300 C   0  0  0  0  0  0  0  0  0  0  0  0
    4.0560   -0.1957    1.3973 N   0  0  0  0  0  0  0  0  0  0  0  0
    4.6787   -0.3444    2.5740 N   0  0  0  0  0  0  0  0  0  0  0  0
    5.9730   -0.2147    2.3427 N   0  0  0  0  0  0  0  0  0  0  0  0
    6.1449    0.0094    1.0494 N   0  0  0  0  0  0  0  0  0  0  0  0
    1.7101   -1.1451   -0.5504 C   0  0  0  0  0  0  0  0  0  0  0  0
    0.5606   -1.2507    0.1995 C   0  0  0  0  0  0  0  0  0  0  0  0
  1  2  1  0
  2  3  1  0
  3  4  1  0
  4  5  2  0
  5  6  1  0
  6  7  1  0
  7  8  1  0
  7  9  1  0
  7 10  1  0
  6 11  2  0
 11 12  1  0
 12 13  2  0
 12 14  1  0
 11 15  1  0
 15 16  1  0
 16 17  1  0
 17 18  2  0
 18 19  1  0
 19 20  2  0
 20 21  1  0
 21 22  2  0
 22 23  1  0
 23 24  2  0
 24 25  1  0
 25 26  2  0
 26 27  1  0
 27 28  2  0
 28 29  1  0
 29 30  2  0
 30 31  1  0
 20 32  1  0
 32 33  2  0
 15  4  1  0
 33 17  1  0
 26 21  1  0
 31 27  1  0
M  END
>  <zinc_id>  (1) 
ZINC000000538621

>  <smiles>  (1) 
CCCc1nc(C(C)(C)O)c(C(=O)O)n1Cc1ccc(-c2ccccc2-c2nnn[nH]2)cc1

$$$$
