
     RDKit          3D

 30 32  0  0  0  0  0  0  0  0999 V2000
    3.7314    3.2093    1.8921 C   0  0  0  0  0  0  0  0  0  0  0  0
    3.8468    2.6956    1.4469 C   0  0  0  0  0  0  0  0  0  0  0  0
    3.2902    1.3976    1.4717 O   0  0  0  0  0  0  0  0  0  0  0  0
    1.9692    1.0976    1.4051 C   0  0  0  0  0  0  0  0  0  0  0  0
    1.0877    1.9311    1.3134 O   0  0  0  0  0  0  0  0  0  0  0  0
    1.5114   -0.3842    1.4462 C   0  0  2  0  0  0  0  0  0  0  0  0
    1.8743   -0.8465   -0.0123 C   0  0  0  0  0  0  0  0  0  0  0  0
    3.0260   -0.8616   -0.5674 C   0  0  0  0  0  0  0  0  0  0  0  0
    4.2397   -0.8657   -1.1505 C   0  0  0  0  0  0  0  0  0  0  0  0
    5.3728   -1.0269   -0.3370 C   0  0  0  0  0  0  0  0  0  0  0  0
    6.6396   -1.0591   -0.7985 C   0  0  0  0  0  0  0  0  0  0  0  0
    6.8639   -0.9293   -2.1418 C   0  0  0  0  0  0  0  0  0  0  0  0
    5.7979   -0.7690   -2.9886 C   0  0  0  0  0  0  0  0  0  0  0  0
    4.5167   -0.7362   -2.5205 C   0  0  0  0  0  0  0  0  0  0  0  0
    0.0393   -0.4062    1.4092 N   0  0  0  0  0  0  0  0  0  0  0  0
   -0.7494    0.1666    0.2958 C   0  0  1  0  0  0  0  0  0  0  0  0
   -0.3959   -0.7901   -0.9564 C   0  0  0  0  0  0  0  0  0  0  0  0
   -2.1048   -0.5748    0.6454 C   0  0  0  0  0  0  0  0  0  0  0  0
   -2.1067   -1.6529    1.2504 O   0  0  0  0  0  0  0  0  0  0  0  0
   -3.2959    0.0116    0.2641 N   0  0  0  0  0  0  0  0  0  0  0  0
   -4.6495   -0.5894    0.4663 C   0  0  2  0  0  0  0  0  0  0  0  0
   -4.4583   -2.0493   -0.0662 C   0  0  0  0  0  0  0  0  0  0  0  0
   -5.3418   -2.7950    0.3934 O   0  0  0  0  0  0  0  0  0  0  0  0
   -3.5647   -2.5568   -0.8737 O   0  0  0  0  0  0  0  0  0  0  0  0
   -5.2557    0.0327   -0.9171 C   0  0  0  0  0  0  0  0  0  0  0  0
   -5.1651    1.4248   -0.1223 C   0  0  2  0  0  0  0  0  0  0  0  0
   -5.4117    2.3366   -1.4471 C   0  0  0  0  0  0  0  0  0  0  0  0
   -4.2748    2.1988   -2.2950 C   0  0  0  0  0  0  0  0  0  0  0  0
   -3.5741    0.9651   -1.8528 C   0  0  0  0  0  0  0  0  0  0  0  0
   -3.4587    1.4258   -0.3153 C   0  0  2  0  0  0  0  0  0  0  0  0
  1  2  1  0
  2  3  1  0
  3  4  1  0
  4  5  2  0
  4  6  1  0
  6  7  1  6
  7  8  1  0
  8  9  1  0
  9 10  2  0
 10 11  1  0
 11 12  2  0
 12 13  1  0
 13 14  2  0
  6 15  1  0
 15 16  1  0
 16 17  1  6
 16 18  1  0
 18 19  2  0
 18 20  1  0
 20 21  1  0
 21 22  1  6
 22 23  2  0
 22 24  1  0
 21 25  1  0
 26 25  1  6
 26 27  1  0
 27 28  1  0
 28 29  1  0
 30 29  1  6
 14  9  1  0
 30 20  1  0
 30 26  1  0
M  END
>  <zinc_id>  (1) 
ZINC000003798757

>  <smiles>  (1) 
CCOC(=O)[C@H](CCc1ccccc1)N[C@@H](C)C(=O)N1[C@H](C(=O)O)C[C@@H]2CCC[C@@H]21

$$$$
