
     RDKit          3D

 17 18  0  0  0  0  0  0  0  0999 V2000
   -4.3098   -1.9084    1.0337 N   0  0  0  0  0  0  0  0  0  0  0  0
   -3.2920   -1.0268    0.5433 C   0  0  0  0  0  0  0  0  0  0  0  0
   -3.3046   -0.5450   -0.7557 C   0  0  0  0  0  0  0  0  0  0  0  0
   -2.2966    0.2959   -1.1558 C   0  0  0  0  0  0  0  0  0  0  0  0
   -1.2711    0.6744   -0.2997 C   0  0  0  0  0  0  0  0  0  0  0  0
   -0.0557    1.7544   -0.9340 S   0  0  0  0  0  0  0  0  0  0  0  0
   -0.6420    2.7744   -1.8613 O   0  0  0  0  0  0  0  0  0  0  0  0
    0.5244    2.5296    0.2371 O   0  0  0  0  0  0  0  0  0  0  0  0
    1.2359    0.9187   -1.6995 N   0  0  0  0  0  0  0  0  0  0  0  0
    2.0599    0.0178   -0.9888 C   0  0  0  0  0  0  0  0  0  0  0  0
    3.0690   -0.6403   -1.5828 N   0  0  0  0  0  0  0  0  0  0  0  0
    3.8435   -1.4889   -0.8908 C   0  0  0  0  0  0  0  0  0  0  0  0
    3.6068   -1.6915    0.4415 C   0  0  0  0  0  0  0  0  0  0  0  0
    2.5745   -1.0144    1.0365 C   0  0  0  0  0  0  0  0  0  0  0  0
    1.8265   -0.1785    0.3136 N   0  0  0  0  0  0  0  0  0  0  0  0
   -1.2880    0.1859    0.9634 C   0  0  0  0  0  0  0  0  0  0  0  0
   -2.2808   -0.6573    1.3973 C   0  0  0  0  0  0  0  0  0  0  0  0
  1  2  1  0
  2  3  2  0
  3  4  1  0
  4  5  2  0
  5  6  1  0
  6  7  2  0
  6  8  2  0
  6  9  1  0
  9 10  1  0
 10 11  2  0
 11 12  1  0
 12 13  2  0
 13 14  1  0
 14 15  2  0
  5 16  1  0
 16 17  2  0
 17  2  1  0
 15 10  1  0
M  END
>  <zinc_id>  (1) 
ZINC000000120319

>  <smiles>  (1) 
Nc1ccc(S(=O)(=O)Nc2ncccn2)cc1

$$$$
