
     RDKit          3D

 16 16  0  0  0  0  0  0  0  0999 V2000
    3.3327   -0.1563   -0.1447 C   0  0  0  0  0  0  0  0  0  0  0  0
    3.4112    0.0292   -0.0854 C   0  0  0  0  0  0  0  0  0  0  0  0
    4.0541    0.4405    1.2386 C   0  0  0  0  0  0  0  0  0  0  0  0
    4.4775   -0.0611   -1.1644 C   0  0  0  0  0  0  0  0  0  0  0  0
    2.3938    1.0239   -0.4274 N   0  0  0  0  0  0  0  0  0  0  0  0
    1.1586    0.8146    0.3049 C   0  0  0  0  0  0  0  0  0  0  0  0
    0.6571   -0.6053   -0.4025 C   0  0  2  0  0  0  0  0  0  0  0  0
    0.5992    0.0211   -1.7960 O   0  0  0  0  0  0  0  0  0  0  0  0
   -0.8975   -0.3679   -0.0648 C   0  0  0  0  0  0  0  0  0  0  0  0
   -1.4527    0.8157   -0.3519 C   0  0  0  0  0  0  0  0  0  0  0  0
   -2.7979    0.9755   -0.0437 C   0  0  0  0  0  0  0  0  0  0  0  0
   -3.4487    2.1714   -0.3097 O   0  0  0  0  0  0  0  0  0  0  0  0
   -3.5074   -0.0559    0.5331 C   0  0  0  0  0  0  0  0  0  0  0  0
   -2.8930   -1.2594    0.8114 C   0  0  0  0  0  0  0  0  0  0  0  0
   -3.5380   -2.3459    1.3901 O   0  0  0  0  0  0  0  0  0  0  0  0
   -1.5491   -1.4401    0.5123 C   0  0  0  0  0  0  0  0  0  0  0  0
  1  2  1  0
  2  3  1  0
  2  4  1  0
  2  5  1  0
  5  6  1  0
  6  7  1  0
  7  8  1  6
  7  9  1  0
  9 10  2  0
 10 11  1  0
 11 12  1  0
 11 13  2  0
 13 14  1  0
 14 15  1  0
 14 16  2  0
 16  9  1  0
M  END
>  <zinc_id>  (1) 
ZINC000000000746

>  <smiles>  (1) 
CC(C)(C)NC[C@H](O)c1cc(O)cc(O)c1

$$$$
