
     RDKit          3D

 11 11  0  0  0  0  0  0  0  0999 V2000
    3.3263    1.4186   -0.1798 C   0  0  0  0  0  0  0  0  0  0  0  0
    3.1757    0.0719   -0.2276 N   0  0  0  0  0  0  0  0  0  0  0  0
    1.7076   -0.0910   -0.8698 C   0  0  1  0  0  0  0  0  0  0  0  0
    1.7014   -1.7366   -0.5705 C   0  0  0  0  0  0  0  0  0  0  0  0
    0.9673    0.2466    0.5763 C   0  0  0  0  0  0  0  0  0  0  0  0
   -0.4701    0.1481    0.2272 C   0  0  0  0  0  0  0  0  0  0  0  0
   -1.2123    1.2101   -0.2331 C   0  0  0  0  0  0  0  0  0  0  0  0
   -2.5422    1.1036   -0.5476 C   0  0  0  0  0  0  0  0  0  0  0  0
   -3.1320   -0.1125   -0.3909 C   0  0  0  0  0  0  0  0  0  0  0  0
   -2.4272   -1.1884    0.0638 C   0  0  0  0  0  0  0  0  0  0  0  0
   -1.0945   -1.0703    0.3761 C   0  0  0  0  0  0  0  0  0  0  0  0
  1  2  1  0
  2  3  1  0
  3  4  1  1
  3  5  1  0
  5  6  1  0
  6  7  2  0
  7  8  1  0
  8  9  2  0
  9 10  1  0
 10 11  2  0
 11  6  1  0
M  END
>  <zinc_id>  (1) 
ZINC000006021043

>  <smiles>  (1) 
CN[C@@H](C)Cc1ccccc1

$$$$
