
     RDKit          3D

 36 41  0  0  0  0  0  0  0  0999 V2000
   -5.6822    4.7071    0.0671 C   0  0  0  0  0  0  0  0  0  0  0  0
   -5.0198    3.5750    0.0505 C   0  0  0  0  0  0  0  0  0  0  0  0
   -5.1835    2.7953   -0.9526 O   0  0  0  0  0  0  0  0  0  0  0  0
   -4.1437    3.1280    1.0269 O   0  0  0  0  0  0  0  0  0  0  0  0
   -3.4284    1.9360    1.0333 C   0  0  0  0  0  0  0  0  0  0  0  0
   -2.4824    1.7329   -0.0590 C   0  0  0  0  0  0  0  0  0  0  0  0
   -2.3272    2.5740   -0.9105 O   0  0  0  0  0  0  0  0  0  0  0  0
   -1.7140    0.4582   -0.0907 C   0  0  1  0  0  0  0  0  0  0  0  0
   -2.0257   -0.4145    0.8959 O   0  0  0  0  0  0  0  0  0  0  0  0
   -2.6850   -1.4832    0.3469 C   0  0  0  0  0  0  0  0  0  0  0  0
   -4.1036   -1.1101    0.0507 C   0  0  0  0  0  0  0  0  0  0  0  0
   -4.8995   -2.3861    0.2144 C   0  0  0  0  0  0  0  0  0  0  0  0
   -4.1612   -3.1130    1.2909 C   0  0  0  0  0  0  0  0  0  0  0  0
   -2.7248   -2.6883    1.2532 C   0  0  0  0  0  0  0  0  0  0  0  0
   -2.0344   -1.7015   -0.8202 O   0  0  0  0  0  0  0  0  0  0  0  0
   -2.1751   -0.3345   -1.4289 C   0  0  2  0  0  0  0  0  0  0  0  0
   -0.6842   -0.3930   -2.1575 C   0  0  0  0  0  0  0  0  0  0  0  0
    0.0616   -0.7695   -0.7960 C   0  0  1  0  0  0  0  0  0  0  0  0
    1.5972   -0.2484   -1.2063 C   0  0  2  0  0  0  0  0  0  0  0  0
    2.1025   -1.5413   -2.0005 C   0  0  0  0  0  0  0  0  0  0  0  0
    3.4892   -1.9050   -1.7049 C   0  0  0  0  0  0  0  0  0  0  0  0
    4.2343   -1.2744   -0.6269 C   0  0  0  0  0  0  0  0  0  0  0  0
    5.4208   -1.5897   -0.2146 C   0  0  0  0  0  0  0  0  0  0  0  0
    6.1380   -0.9659    0.8350 C   0  0  0  0  0  0  0  0  0  0  0  0
    7.2910   -1.2591    1.2493 O   0  0  0  0  0  0  0  0  0  0  0  0
    5.5103    0.1500    1.5489 C   0  0  0  0  0  0  0  0  0  0  0  0
    4.3121    0.4615    1.1294 C   0  0  0  0  0  0  0  0  0  0  0  0
    3.5390   -0.1413    0.0748 C   0  0  1  0  0  0  0  0  0  0  0  0
    3.7822    0.9162   -1.0500 C   0  0  0  0  0  0  0  0  0  0  0  0
    2.2531   -0.6720    0.1867 C   0  0  2  0  0  0  0  0  0  0  0  0
    2.1119   -2.0619    0.3777 F   0  0  0  0  0  0  0  0  0  0  0  0
    1.2152   -0.3084    1.3670 C   0  0  1  0  0  0  0  0  0  0  0  0
    2.1579    0.4220    2.2666 O   0  0  0  0  0  0  0  0  0  0  0  0
    0.5821    1.0816    0.7855 C   0  0  0  0  0  0  0  0  0  0  0  0
   -0.3314    0.7129   -0.2615 C   0  0  2  0  0  0  0  0  0  0  0  0
    0.0076    1.7105   -1.3656 C   0  0  0  0  0  0  0  0  0  0  0  0
  1  2  1  0
  2  3  2  0
  2  4  1  0
  4  5  1  0
  5  6  1  0
  6  7  2  0
  8  6  1  1
  8  9  1  0
  9 10  1  0
 10 11  1  0
 11 12  1  0
 12 13  1  0
 13 14  1  0
 10 15  1  0
 15 16  1  0
 16 17  1  6
 18 17  1  6
 18 19  1  0
 19 20  1  6
 20 21  1  0
 21 22  1  0
 22 23  2  0
 23 24  1  0
 24 25  2  0
 24 26  1  0
 26 27  2  0
 27 28  1  0
 28 29  1  6
 28 30  1  0
 30 31  1  6
 30 32  1  0
 32 33  1  1
 32 34  1  0
 34 35  1  0
 35 36  1  6
 16  8  1  0
 35 18  1  0
 35  8  1  0
 14 10  1  0
 30 19  1  0
 28 22  1  0
M  END
>  <zinc_id>  (1) 
ZINC000003977777

>  <smiles>  (1) 
CC(=O)OCC(=O)[C@@]12OC3(CCCC3)O[C@@H]1C[C@H]1[C@@H]3CCC4=CC(=O)C=C[C@]4(C)[C@@]3(F)[C@@H](O)C[C@@]12C

$$$$
