
     RDKit          3D

  9  8  0  0  0  0  0  0  0  0999 V2000
   -2.0190    1.1944    0.3301 N   0  0  0  0  0  0  0  0  0  0  0  0
   -2.4535   -0.1709    0.4774 C   0  0  0  0  0  0  0  0  0  0  0  0
   -1.3432   -1.1180    0.3145 C   0  0  0  0  0  0  0  0  0  0  0  0
   -1.6397   -2.3178    0.4279 O   0  0  0  0  0  0  0  0  0  0  0  0
    0.0679   -0.8416    0.0365 C   0  0  0  0  0  0  0  0  0  0  0  0
    0.4633    0.5756   -0.1060 C   0  0  0  0  0  0  0  0  0  0  0  0
    1.8946    0.7774   -0.3842 C   0  0  0  0  0  0  0  0  0  0  0  0
    2.6709   -0.1673   -0.4844 O   0  0  0  0  0  0  0  0  0  0  0  0
    2.3586    2.0682   -0.5335 O   0  0  0  0  0  0  0  0  0  0  0  0
  1  2  1  0
  2  3  1  0
  3  4  2  0
  3  5  1  0
  5  6  1  0
  6  7  1  0
  7  8  2  0
  7  9  1  0
M  END
>  <zinc_id>  (1) 
ZINC000003782550

>  <smiles>  (1) 
NCC(=O)CCC(=O)O

$$$$
