
     RDKit          3D

 20 23  0  0  0  0  0  0  0  0999 V2000
   -3.5600   -0.9248    0.7955 C   0  0  0  0  0  0  0  0  0  0  0  0
   -2.2263   -0.9810    0.2250 N   0  0  0  0  0  0  0  0  0  0  0  0
   -1.6716   -2.3258    0.3589 C   0  0  0  0  0  0  0  0  0  0  0  0
   -0.5400   -2.4221   -0.6511 C   0  0  0  0  0  0  0  0  0  0  0  0
    0.0210   -1.1083   -0.8103 N   0  0  0  0  0  0  0  0  0  0  0  0
    1.2652   -1.0182   -0.1914 C   0  0  0  0  0  0  0  0  0  0  0  0
    1.7709   -2.2218    0.1947 N   0  0  0  0  0  0  0  0  0  0  0  0
    2.9458   -2.3233    0.7994 C   0  0  0  0  0  0  0  0  0  0  0  0
    3.7199   -1.2345    1.0724 C   0  0  0  0  0  0  0  0  0  0  0  0
    3.2842    0.0021    0.7181 C   0  0  0  0  0  0  0  0  0  0  0  0
    2.0524    0.0799    0.0872 C   0  0  0  0  0  0  0  0  0  0  0  0
    1.6921    1.4814   -0.2481 C   0  0  0  0  0  0  0  0  0  0  0  0
    0.2851    1.8039   -0.1446 C   0  0  0  0  0  0  0  0  0  0  0  0
    0.1193    2.9547    0.6266 C   0  0  0  0  0  0  0  0  0  0  0  0
   -1.1281    3.4405    0.8355 C   0  0  0  0  0  0  0  0  0  0  0  0
   -2.2096    2.7965    0.2875 C   0  0  0  0  0  0  0  0  0  0  0  0
   -2.0108    1.6365   -0.4865 C   0  0  0  0  0  0  0  0  0  0  0  0
   -0.7596    1.1419   -0.7007 C   0  0  0  0  0  0  0  0  0  0  0  0
   -0.7893   -0.1209   -1.5857 C   0  0  2  0  0  0  0  0  0  0  0  0
   -2.2608   -0.6569   -1.1823 C   0  0  0  0  0  0  0  0  0  0  0  0
  1  2  1  0
  2  3  1  0
  3  4  1  0
  4  5  1  0
  5  6  1  0
  6  7  2  0
  7  8  1  0
  8  9  2  0
  9 10  1  0
 10 11  2  0
 11 12  1  0
 12 13  1  0
 13 14  2  0
 14 15  1  0
 15 16  2  0
 16 17  1  0
 17 18  2  0
 18 19  1  0
 19 20  1  1
 20  2  1  0
 19  5  1  0
 11  6  1  0
 18 13  1  0
M  END
>  <zinc_id>  (1) 
ZINC000000968310

>  <smiles>  (1) 
CN1CCN2c3ncccc3Cc3ccccc3[C@H]2C1

$$$$
