
     RDKit          3D

 19 20  0  0  0  0  0  0  0  0999 V2000
    4.2579   -1.2307   -0.6541 N   0  0  0  0  0  0  0  0  0  0  0  0
    3.8963   -0.6006    0.1523 C   0  0  0  0  0  0  0  0  0  0  0  0
    4.6350    0.2494    0.7391 O   0  0  0  0  0  0  0  0  0  0  0  0
    2.4787   -0.6921    0.6362 C   0  0  0  0  0  0  0  0  0  0  0  0
    1.5673    0.5486   -0.3881 S   0  0  0  0  0  0  0  0  0  0  0  0
    1.4978   -0.1926   -1.7569 O   0  0  0  0  0  0  0  0  0  0  0  0
   -0.1209    0.3612    0.2703 C   0  0  0  0  0  0  0  0  0  0  0  0
   -0.6550   -0.9798    0.1087 C   0  0  0  0  0  0  0  0  0  0  0  0
   -1.3347   -1.5951    1.1323 C   0  0  0  0  0  0  0  0  0  0  0  0
   -1.8545   -2.8812    0.9981 C   0  0  0  0  0  0  0  0  0  0  0  0
   -1.6828   -3.5404   -0.1767 C   0  0  0  0  0  0  0  0  0  0  0  0
   -1.0089   -2.9489   -1.2123 C   0  0  0  0  0  0  0  0  0  0  0  0
   -0.4818   -1.6567   -1.0896 C   0  0  0  0  0  0  0  0  0  0  0  0
   -0.9985    1.4668   -0.0902 C   0  0  0  0  0  0  0  0  0  0  0  0
   -1.8103    2.0100    0.8910 C   0  0  0  0  0  0  0  0  0  0  0  0
   -2.6707    3.0528    0.6470 C   0  0  0  0  0  0  0  0  0  0  0  0
   -2.7313    3.5843   -0.6285 C   0  0  0  0  0  0  0  0  0  0  0  0
   -1.9235    3.0434   -1.6032 C   0  0  0  0  0  0  0  0  0  0  0  0
   -1.0601    2.0016   -1.3716 C   0  0  0  0  0  0  0  0  0  0  0  0
  1  2  1  0
  2  3  2  0
  2  4  1  0
  5  4  1  1
  5  6  2  0
  5  7  1  0
  7  8  1  0
  8  9  2  0
  9 10  1  0
 10 11  2  0
 11 12  1  0
 12 13  2  0
  7 14  1  0
 14 15  2  0
 15 16  1  0
 16 17  2  0
 17 18  1  0
 18 19  2  0
 13  8  1  0
 19 14  1  0
M  END
>  <zinc_id>  (1) 
ZINC000000006156

>  <smiles>  (1) 
NC(=O)C[S@@](=O)C(c1ccccc1)c1ccccc1

$$$$
