
     RDKit          3D

 20 20  0  0  0  0  0  0  0  0999 V2000
    6.2218   -1.7205   -1.0443 C   0  0  0  0  0  0  0  0  0  0  0  0
    4.8574   -1.0752   -1.0880 C   0  0  0  0  0  0  0  0  0  0  0  0
    4.0708   -1.4829    0.0401 N   0  0  0  0  0  0  0  0  0  0  0  0
    4.5939   -0.9479    1.2669 C   0  0  0  0  0  0  0  0  0  0  0  0
    4.4679    0.5504    1.3929 C   0  0  0  0  0  0  0  0  0  0  0  0
    2.6723   -1.3003   -0.1487 C   0  0  0  0  0  0  0  0  0  0  0  0
    2.3263    0.1436   -0.1779 C   0  0  0  0  0  0  0  0  0  0  0  0
    0.9030    0.4040   -0.3825 N   0  0  0  0  0  0  0  0  0  0  0  0
   -0.0768   -0.0894    0.5072 C   0  0  0  0  0  0  0  0  0  0  0  0
    0.2808   -0.7759    1.5039 O   0  0  0  0  0  0  0  0  0  0  0  0
   -1.4984    0.1711    0.3080 C   0  0  0  0  0  0  0  0  0  0  0  0
   -2.4601   -0.3062    1.1656 C   0  0  0  0  0  0  0  0  0  0  0  0
   -3.8134   -0.0928    1.0188 C   0  0  0  0  0  0  0  0  0  0  0  0
   -4.9795   -0.7367    2.1719 Cl  0  0  0  0  0  0  0  0  0  0  0  0
   -4.2070    0.6537   -0.0695 C   0  0  0  0  0  0  0  0  0  0  0  0
   -5.6015    0.8838   -0.2379 N   0  0  0  0  0  0  0  0  0  0  0  0
   -3.2657    1.1501   -0.9525 C   0  0  0  0  0  0  0  0  0  0  0  0
   -1.9125    0.9169   -0.7754 C   0  0  0  0  0  0  0  0  0  0  0  0
   -1.0363    1.4589   -1.7150 O   0  0  0  0  0  0  0  0  0  0  0  0
   -1.5431    2.1953   -2.7835 C   0  0  0  0  0  0  0  0  0  0  0  0
  1  2  1  0
  2  3  1  0
  3  4  1  0
  4  5  1  0
  3  6  1  0
  6  7  1  0
  7  8  1  0
  8  9  1  0
  9 10  2  0
  9 11  1  0
 11 12  2  0
 12 13  1  0
 13 14  1  0
 13 15  2  0
 15 16  1  0
 15 17  1  0
 17 18  2  0
 18 19  1  0
 19 20  1  0
 18 11  1  0
M  END
>  <zinc_id>  (1) 
ZINC000001530716

>  <smiles>  (1) 
CCN(CC)CCNC(=O)c1cc(Cl)c(N)cc1OC

$$$$
