
     RDKit          3D

 21 22  0  0  0  0  0  0  0  0999 V2000
   -0.9100    1.8736    1.4544 O   0  0  0  0  0  0  0  0  0  0  0  0
   -1.6881    1.1160    0.5878 C   0  0  0  0  0  0  0  0  0  0  0  0
   -2.7858    1.7176   -0.0170 C   0  0  0  0  0  0  0  0  0  0  0  0
   -3.2319    3.3880    0.2623 Cl  0  0  0  0  0  0  0  0  0  0  0  0
   -3.5855    0.9962   -0.8866 C   0  0  0  0  0  0  0  0  0  0  0  0
   -3.2728   -0.3349   -1.1429 C   0  0  0  0  0  0  0  0  0  0  0  0
   -4.2814   -1.2753   -2.2495 Cl  0  0  0  0  0  0  0  0  0  0  0  0
   -2.1801   -0.8971   -0.5268 C   0  0  0  0  0  0  0  0  0  0  0  0
   -1.7727   -2.5801   -0.8396 Cl  0  0  0  0  0  0  0  0  0  0  0  0
   -1.3580   -0.2066    0.3481 C   0  0  0  0  0  0  0  0  0  0  0  0
   -0.2060   -0.8108    0.9974 C   0  0  0  0  0  0  0  0  0  0  0  0
    1.1185   -0.5057    0.5088 C   0  0  0  0  0  0  0  0  0  0  0  0
    1.4838    0.1635   -0.6144 C   0  0  0  0  0  0  0  0  0  0  0  0
    0.5108    0.6421   -1.4589 O   0  0  0  0  0  0  0  0  0  0  0  0
    2.8103    0.3959   -0.9656 C   0  0  0  0  0  0  0  0  0  0  0  0
    3.2418    1.2620   -2.4147 Cl  0  0  0  0  0  0  0  0  0  0  0  0
    3.8251   -0.0576   -0.1648 C   0  0  0  0  0  0  0  0  0  0  0  0
    3.4756   -0.7452    0.9888 C   0  0  0  0  0  0  0  0  0  0  0  0
    4.7788   -1.3225    2.0037 Cl  0  0  0  0  0  0  0  0  0  0  0  0
    2.1686   -0.9654    1.3210 C   0  0  0  0  0  0  0  0  0  0  0  0
    1.8590   -1.8539    2.8087 Cl  0  0  0  0  0  0  0  0  0  0  0  0
  1  2  1  0
  2  3  2  0
  3  4  1  0
  3  5  1  0
  5  6  2  0
  6  7  1  0
  6  8  1  0
  8  9  1  0
  8 10  2  0
 10 11  1  0
 11 12  1  0
 12 13  2  0
 13 14  1  0
 13 15  1  0
 15 16  1  0
 15 17  2  0
 17 18  1  0
 18 19  1  0
 18 20  2  0
 20 21  1  0
 10  2  1  0
 20 12  1  0
M  END
>  <zinc_id>  (1) 
ZINC000001530968

>  <smiles>  (1) 
Oc1c(Cl)cc(Cl)c(Cl)c1Cc1c(O)c(Cl)cc(Cl)c1Cl

$$$$
