
     RDKit          3D

 37 40  0  0  0  0  0  0  0  0999 V2000
    7.8959   -0.3006    0.0102 C   0  0  0  0  0  0  0  0  0  0  0  0
    7.7100   -0.2045   -0.1672 C   0  0  0  0  0  0  0  0  0  0  0  0
    8.1611   -1.1463   -1.2825 C   0  0  0  0  0  0  0  0  0  0  0  0
    7.7742    1.2195   -0.5788 C   0  0  0  0  0  0  0  0  0  0  0  0
    8.0932    1.5341   -1.7287 O   0  0  0  0  0  0  0  0  0  0  0  0
    7.4692    2.1656    0.3571 O   0  0  0  0  0  0  0  0  0  0  0  0
    6.3181   -0.5361    0.2937 C   0  0  0  0  0  0  0  0  0  0  0  0
    5.6533   -1.6662   -0.0468 C   0  0  0  0  0  0  0  0  0  0  0  0
    4.3804   -1.8547    0.4167 C   0  0  0  0  0  0  0  0  0  0  0  0
    3.7678   -0.9722    1.1887 C   0  0  0  0  0  0  0  0  0  0  0  0
    2.2877   -1.1884    1.7387 C   0  0  2  0  0  0  0  0  0  0  0  0
    2.5450   -2.6297    2.2037 O   0  0  0  0  0  0  0  0  0  0  0  0
    1.6815   -1.7262    0.2793 C   0  0  0  0  0  0  0  0  0  0  0  0
    1.9465   -0.5405   -0.5999 C   0  0  0  0  0  0  0  0  0  0  0  0
    1.1815    0.6406   -0.0796 C   0  0  0  0  0  0  0  0  0  0  0  0
   -0.1932    0.3972   -0.1071 N   0  0  0  0  0  0  0  0  0  0  0  0
   -0.7435   -0.5557    0.7808 C   0  0  0  0  0  0  0  0  0  0  0  0
   -2.1837   -0.8373    0.5380 C   0  0  0  0  0  0  0  0  0  0  0  0
   -3.0094    0.3973    0.6024 C   0  0  0  0  0  0  0  0  0  0  0  0
   -4.2225    0.2621   -0.2498 C   0  0  0  0  0  0  0  0  0  0  0  0
   -3.7767    0.0399   -1.5637 O   0  0  0  0  0  0  0  0  0  0  0  0
   -5.0410    1.4965   -0.3073 C   0  0  0  0  0  0  0  0  0  0  0  0
   -6.0784    1.5239   -1.2246 C   0  0  0  0  0  0  0  0  0  0  0  0
   -6.9144    2.5954   -1.3896 C   0  0  0  0  0  0  0  0  0  0  0  0
   -6.6609    3.6904   -0.5629 C   0  0  0  0  0  0  0  0  0  0  0  0
   -5.6533    3.7101    0.3534 C   0  0  0  0  0  0  0  0  0  0  0  0
   -4.8419    2.5933    0.4716 C   0  0  0  0  0  0  0  0  0  0  0  0
   -4.9988   -0.9016    0.2043 C   0  0  0  0  0  0  0  0  0  0  0  0
   -5.4947   -0.8450    1.5062 C   0  0  0  0  0  0  0  0  0  0  0  0
   -6.2197   -1.9117    1.9571 C   0  0  0  0  0  0  0  0  0  0  0  0
   -6.4673   -3.0281    1.1612 C   0  0  0  0  0  0  0  0  0  0  0  0
   -5.9590   -3.0471   -0.1242 C   0  0  0  0  0  0  0  0  0  0  0  0
   -5.2269   -1.9837   -0.5979 C   0  0  0  0  0  0  0  0  0  0  0  0
   -2.2040    1.6269    0.4179 C   0  0  0  0  0  0  0  0  0  0  0  0
   -1.0785    1.4055   -0.5380 C   0  0  0  0  0  0  0  0  0  0  0  0
    4.4029    0.1845    1.5573 C   0  0  0  0  0  0  0  0  0  0  0  0
    5.6994    0.3927    1.0950 C   0  0  0  0  0  0  0  0  0  0  0  0
  1  2  1  0
  2  3  1  0
  2  4  1  0
  4  5  2  0
  4  6  1  0
  2  7  1  0
  7  8  2  0
  8  9  1  0
  9 10  2  0
 10 11  1  0
 11 12  1  1
 11 13  1  0
 13 14  1  0
 14 15  1  0
 15 16  1  0
 16 17  1  0
 17 18  1  0
 18 19  1  0
 19 20  1  0
 20 21  1  0
 20 22  1  0
 22 23  2  0
 23 24  1  0
 24 25  2  0
 25 26  1  0
 26 27  2  0
 20 28  1  0
 28 29  2  0
 29 30  1  0
 30 31  2  0
 31 32  1  0
 32 33  2  0
 19 34  1  0
 34 35  1  0
 10 36  1  0
 36 37  2  0
 37  7  1  0
 35 16  1  0
 27 22  1  0
 33 28  1  0
M  END
>  <zinc_id>  (1) 
ZINC000003872566

>  <smiles>  (1) 
CC(C)(C(=O)O)c1ccc([C@H](O)CCCN2CCC(C(O)(c3ccccc3)c3ccccc3)CC2)cc1

$$$$
