
     RDKit          3D

 15 15  0  0  0  0  0  0  0  0999 V2000
    4.2830   -1.1357    0.1698 C   0  0  0  0  0  0  0  0  0  0  0  0
    3.7673    0.0877   -0.1990 C   0  0  0  0  0  0  0  0  0  0  0  0
    4.3017    1.3341    0.3736 C   0  0  0  0  0  0  0  0  0  0  0  0
    2.6967    0.1751   -1.1088 N   0  0  0  0  0  0  0  0  0  0  0  0
    1.4675   -0.4159   -0.7167 C   0  0  0  0  0  0  0  0  0  0  0  0
    0.8843    0.5276    0.5548 C   0  0  1  0  0  0  0  0  0  0  0  0
    0.8320    1.7904   -0.3457 O   0  0  0  0  0  0  0  0  0  0  0  0
   -0.6444    0.1299    0.3048 C   0  0  0  0  0  0  0  0  0  0  0  0
   -1.1759    0.0933   -0.9147 C   0  0  0  0  0  0  0  0  0  0  0  0
   -2.4960   -0.2461   -1.1083 C   0  0  0  0  0  0  0  0  0  0  0  0
   -3.0385   -0.2807   -2.3922 O   0  0  0  0  0  0  0  0  0  0  0  0
   -3.2414   -0.5468    0.0271 C   0  0  0  0  0  0  0  0  0  0  0  0
   -2.7155   -0.5157    1.3060 C   0  0  0  0  0  0  0  0  0  0  0  0
   -3.5390   -0.8314    2.3751 O   0  0  0  0  0  0  0  0  0  0  0  0
   -1.3818   -0.1659    1.4142 C   0  0  0  0  0  0  0  0  0  0  0  0
  1  2  1  0
  2  3  1  0
  2  4  1  0
  4  5  1  0
  5  6  1  0
  6  7  1  6
  6  8  1  0
  8  9  2  0
  9 10  1  0
 10 11  1  0
 10 12  2  0
 12 13  1  0
 13 14  1  0
 13 15  2  0
 15  8  1  0
M  END
>  <zinc_id>  (1) 
ZINC000000000469

>  <smiles>  (1) 
CC(C)NC[C@@H](O)c1cc(O)cc(O)c1

$$$$
