
     RDKit          3D

 30 31  0  0  0  0  0  0  0  0999 V2000
   -6.5285   -3.9477   -1.1097 C   0  0  0  0  0  0  0  0  0  0  0  0
   -5.4973   -3.4646   -0.2296 C   0  0  0  0  0  0  0  0  0  0  0  0
   -4.3579   -3.0347   -0.9621 O   0  0  0  0  0  0  0  0  0  0  0  0
   -3.2759   -2.5415   -0.2593 C   0  0  0  0  0  0  0  0  0  0  0  0
   -3.2849   -2.4747    0.9424 O   0  0  0  0  0  0  0  0  0  0  0  0
   -2.0802   -2.0975   -1.1659 C   0  0  2  0  0  0  0  0  0  0  0  0
   -1.6941   -3.6099   -1.6784 C   0  0  0  0  0  0  0  0  0  0  0  0
   -0.9293   -2.0209   -0.0270 C   0  0  0  0  0  0  0  0  0  0  0  0
   -1.6348   -0.8227    0.8653 C   0  0  1  0  0  0  0  0  0  0  0  0
   -0.4693   -0.7609    2.0128 C   0  0  0  0  0  0  0  0  0  0  0  0
    0.8067   -0.4229    1.4429 C   0  0  0  0  0  0  0  0  0  0  0  0
    1.2426    0.8715    1.2657 C   0  0  0  0  0  0  0  0  0  0  0  0
    2.4944    1.1502    0.7348 C   0  0  0  0  0  0  0  0  0  0  0  0
    3.3620    0.1474    0.3598 C   0  0  0  0  0  0  0  0  0  0  0  0
    4.6869    0.4162   -0.1892 C   0  0  0  0  0  0  0  0  0  0  0  0
    5.4609    1.5030    0.1476 C   0  0  0  0  0  0  0  0  0  0  0  0
    6.7176    1.7319   -0.3770 C   0  0  0  0  0  0  0  0  0  0  0  0
    7.2440    0.8356   -1.2889 C   0  0  0  0  0  0  0  0  0  0  0  0
    6.5022   -0.2503   -1.6437 C   0  0  0  0  0  0  0  0  0  0  0  0
    5.2385   -0.4580   -1.1001 C   0  0  0  0  0  0  0  0  0  0  0  0
    2.9339   -1.1530    0.5333 C   0  0  0  0  0  0  0  0  0  0  0  0
    1.7025   -1.3874    1.0550 C   0  0  0  0  0  0  0  0  0  0  0  0
   -1.0265    0.3377   -0.0220 N   0  0  0  0  0  0  0  0  0  0  0  0
   -1.9236    1.4097   -0.2726 C   0  0  0  0  0  0  0  0  0  0  0  0
   -3.0678    1.3147    0.2303 O   0  0  0  0  0  0  0  0  0  0  0  0
   -1.5399    2.6044   -1.0950 C   0  0  0  0  0  0  0  0  0  0  0  0
   -2.6653    3.6176   -0.9132 C   0  0  0  0  0  0  0  0  0  0  0  0
   -2.7562    4.0295    0.5219 C   0  0  0  0  0  0  0  0  0  0  0  0
   -1.9142    3.6167    1.3662 O   0  0  0  0  0  0  0  0  0  0  0  0
   -3.7465    4.8607    0.9673 O   0  0  0  0  0  0  0  0  0  0  0  0
  1  2  1  0
  2  3  1  0
  3  4  1  0
  4  5  2  0
  4  6  1  0
  6  7  1  6
  6  8  1  0
  9  8  1  6
  9 10  1  0
 10 11  1  0
 11 12  2  0
 12 13  1  0
 13 14  2  0
 14 15  1  0
 15 16  2  0
 16 17  1  0
 17 18  2  0
 18 19  1  0
 19 20  2  0
 14 21  1  0
 21 22  2  0
  9 23  1  0
 23 24  1  0
 24 25  2  0
 24 26  1  0
 26 27  1  0
 27 28  1  0
 28 29  2  0
 28 30  1  0
 22 11  1  0
 20 15  1  0
M  END
>  <zinc_id>  (1) 
ZINC000003792417

>  <smiles>  (1) 
CCOC(=O)[C@H](C)C[C@@H](Cc1ccc(-c2ccccc2)cc1)NC(=O)CCC(=O)O

$$$$
