
     RDKit          3D

 11 10  0  0  0  0  0  0  0  0999 V2000
    3.6498    1.1794   -0.2435 C   0  0  0  0  0  0  0  0  0  0  0  0
    2.6107    0.2547    0.2893 C   0  0  0  0  0  0  0  0  0  0  0  0
    2.8505   -0.4613    1.1887 O   0  0  0  0  0  0  0  0  0  0  0  0
    1.4034    0.3362   -0.3854 O   0  0  0  0  0  0  0  0  0  0  0  0
    0.2418   -0.5095    0.2527 C   0  0  2  0  0  0  0  0  0  0  0  0
    0.1216   -1.4096   -1.1753 C   0  0  0  0  0  0  0  0  0  0  0  0
   -0.8728    0.5647   -0.4323 C   0  0  0  0  0  0  0  0  0  0  0  0
   -2.1182    0.0862    0.0316 N   0  0  0  0  0  0  0  0  0  0  0  0
   -2.2720    0.1920    1.4685 C   0  0  0  0  0  0  0  0  0  0  0  0
   -2.4637   -1.2091   -0.4873 C   0  0  0  0  0  0  0  0  0  0  0  0
   -3.1510    0.9764   -0.5070 C   0  0  0  0  0  0  0  0  0  0  0  0
  1  2  1  0
  2  3  2  0
  2  4  1  0
  4  5  1  0
  5  6  1  6
  5  7  1  0
  7  8  1  0
  8  9  1  0
  8 10  1  0
  8 11  1  0
M  CHG  1   8   1
M  END
>  <zinc_id>  (1) 
ZINC000003831051

>  <smiles>  (1) 
CC(=O)O[C@H](C)C[N+](C)(C)C

$$$$
