
     RDKit          3D

 11 11  0  0  0  0  0  0  0  0999 V2000
    3.5374   -0.0427   -0.7383 N   0  0  0  0  0  0  0  0  0  0  0  0
    2.1742    0.0150   -0.3567 C   0  0  0  0  0  0  0  0  0  0  0  0
    1.7772    0.5105    0.8811 C   0  0  0  0  0  0  0  0  0  0  0  0
    0.4425    0.5556    1.2280 C   0  0  0  0  0  0  0  0  0  0  0  0
   -0.5449    0.1188    0.3779 C   0  0  0  0  0  0  0  0  0  0  0  0
   -1.9600    0.1570    0.7230 C   0  0  0  0  0  0  0  0  0  0  0  0
   -2.3736    0.5958    1.8304 O   0  0  0  0  0  0  0  0  0  0  0  0
   -2.9142   -0.2979   -0.1758 O   0  0  0  0  0  0  0  0  0  0  0  0
   -0.1639   -0.3725   -0.8473 C   0  0  0  0  0  0  0  0  0  0  0  0
   -1.1457   -0.8191   -1.7213 O   0  0  0  0  0  0  0  0  0  0  0  0
    1.1709   -0.4205   -1.2009 C   0  0  0  0  0  0  0  0  0  0  0  0
  1  2  1  0
  2  3  2  0
  3  4  1  0
  4  5  2  0
  5  6  1  0
  6  7  2  0
  6  8  1  0
  5  9  1  0
  9 10  1  0
  9 11  2  0
 11  2  1  0
M  END
>  <zinc_id>  (1) 
ZINC000000000922

>  <smiles>  (1) 
Nc1ccc(C(=O)O)c(O)c1

$$$$
