
     RDKit          3D

 27 29  0  0  0  0  0  0  0  0999 V2000
   -4.8462    0.2302    0.7157 N   0  0  0  0  0  0  0  0  0  0  0  0
   -4.3504   -0.3146    0.2644 S   0  0  0  0  0  0  0  0  0  0  0  0
   -4.7126   -1.7833    0.7096 O   0  0  0  0  0  0  0  0  0  0  0  0
   -4.6967   -0.3886   -1.2211 O   0  0  0  0  0  0  0  0  0  0  0  0
   -2.5951   -0.2738    0.3362 C   0  0  0  0  0  0  0  0  0  0  0  0
   -1.8791   -1.4434    0.6462 C   0  0  0  0  0  0  0  0  0  0  0  0
   -0.5299   -1.4090    0.6681 C   0  0  0  0  0  0  0  0  0  0  0  0
    0.1352   -0.2388    0.3891 C   0  0  0  0  0  0  0  0  0  0  0  0
   -0.5175    0.9125    0.0856 C   0  0  0  0  0  0  0  0  0  0  0  0
   -1.9399    0.8863    0.0607 C   0  0  0  0  0  0  0  0  0  0  0  0
   -2.6594    2.1352   -0.2347 C   0  0  0  0  0  0  0  0  0  0  0  0
   -3.4943    2.1078   -1.3192 F   0  0  0  0  0  0  0  0  0  0  0  0
   -1.7093    3.1453   -0.5932 F   0  0  0  0  0  0  0  0  0  0  0  0
   -3.3004    2.7256    0.8177 F   0  0  0  0  0  0  0  0  0  0  0  0
    1.5688   -0.3701    0.4641 N   0  0  0  0  0  0  0  0  0  0  0  0
    2.1805   -1.4212   -0.5216 C   0  0  1  0  0  0  0  0  0  0  0  0
    3.7002   -1.1879    0.0590 C   0  0  0  0  0  0  0  0  0  0  0  0
    4.0810    0.1690   -0.1237 C   0  0  0  0  0  0  0  0  0  0  0  0
    3.8480    1.1450    0.8106 C   0  0  0  0  0  0  0  0  0  0  0  0
    4.2233    2.4663    0.6232 C   0  0  0  0  0  0  0  0  0  0  0  0
    4.8562    2.8089   -0.5516 C   0  0  0  0  0  0  0  0  0  0  0  0
    5.1064    1.8691   -1.5058 C   0  0  0  0  0  0  0  0  0  0  0  0
    4.7145    0.5547   -1.2802 C   0  0  0  0  0  0  0  0  0  0  0  0
    2.0056   -2.6787    0.4334 N   0  0  0  0  0  0  0  0  0  0  0  0
    0.4702   -2.7710    1.0374 S   0  0  0  0  0  0  0  0  0  0  0  0
    0.5736   -2.8409    2.5542 O   0  0  0  0  0  0  0  0  0  0  0  0
   -0.2329   -4.0346    0.6215 O   0  0  0  0  0  0  0  0  0  0  0  0
  1  2  1  0
  2  3  2  0
  2  4  2  0
  2  5  1  0
  5  6  2  0
  6  7  1  0
  7  8  2  0
  8  9  1  0
  9 10  2  0
 10 11  1  0
 11 12  1  0
 11 13  1  0
 11 14  1  0
  8 15  1  0
 15 16  1  0
 16 17  1  1
 17 18  1  0
 18 19  2  0
 19 20  1  0
 20 21  2  0
 21 22  1  0
 22 23  2  0
 16 24  1  0
 24 25  1  0
 25 26  2  0
 25 27  2  0
 10  5  1  0
 23 18  1  0
 25  7  1  0
M  END
>  <zinc_id>  (1) 
ZINC000000601301

>  <smiles>  (1) 
NS(=O)(=O)c1cc2c(cc1C(F)(F)F)N[C@@H](Cc1ccccc1)NS2(=O)=O

$$$$
