
     RDKit          3D

 39 43  0  0  0  0  0  0  0  0999 V2000
   -4.8537   -4.7332   -0.6729 C   0  0  0  0  0  0  0  0  0  0  0  0
   -4.4598   -3.8080   -0.5826 O   0  0  0  0  0  0  0  0  0  0  0  0
   -5.0227   -2.5434   -0.7776 C   0  0  0  0  0  0  0  0  0  0  0  0
   -6.3522   -2.4047   -1.1656 C   0  0  0  0  0  0  0  0  0  0  0  0
   -6.9067   -1.1632   -1.3576 C   0  0  0  0  0  0  0  0  0  0  0  0
   -6.0996   -0.0621   -1.1523 C   0  0  0  0  0  0  0  0  0  0  0  0
   -4.7736   -0.1862   -0.7658 C   0  0  0  0  0  0  0  0  0  0  0  0
   -4.2315   -1.4359   -0.5772 C   0  0  0  0  0  0  0  0  0  0  0  0
   -2.8195   -1.6069   -0.1646 C   0  0  0  0  0  0  0  0  0  0  0  0
   -2.3172   -2.7466    0.0098 O   0  0  0  0  0  0  0  0  0  0  0  0
   -1.9927   -0.4261    0.0443 C   0  0  0  0  0  0  0  0  0  0  0  0
   -0.6428   -0.5441    0.4376 C   0  0  0  0  0  0  0  0  0  0  0  0
   -0.1567   -1.8077    0.6104 O   0  0  0  0  0  0  0  0  0  0  0  0
    0.1136    0.5744    0.6278 C   0  0  0  0  0  0  0  0  0  0  0  0
   -0.4172    1.7794    0.4437 C   0  0  0  0  0  0  0  0  0  0  0  0
   -1.7327    1.9781    0.0583 C   0  0  0  0  0  0  0  0  0  0  0  0
   -2.2203    3.2446   -0.1150 O   0  0  0  0  0  0  0  0  0  0  0  0
   -2.4998    0.8438   -0.1347 C   0  0  0  0  0  0  0  0  0  0  0  0
   -3.9106    0.9619   -0.5456 C   0  0  0  0  0  0  0  0  0  0  0  0
   -4.3741    2.1101   -0.7089 O   0  0  0  0  0  0  0  0  0  0  0  0
    0.5388    2.9195    0.6948 C   0  0  0  0  0  0  0  0  0  0  0  0
    1.6360    2.5672   -0.3262 C   0  0  1  0  0  0  0  0  0  0  0  0
    1.1413    2.9359   -1.5718 O   0  0  0  0  0  0  0  0  0  0  0  0
    2.6911    3.5727   -0.0100 C   0  0  0  0  0  0  0  0  0  0  0  0
    2.9368    4.4605   -0.7897 O   0  0  0  0  0  0  0  0  0  0  0  0
    3.4548    3.5053    1.2567 C   0  0  0  0  0  0  0  0  0  0  0  0
    4.3602    4.5418    1.3010 O   0  0  0  0  0  0  0  0  0  0  0  0
    2.2741    1.2944   -0.2042 C   0  0  0  0  0  0  0  0  0  0  0  0
    1.6443    0.3875    1.0803 C   0  0  2  0  0  0  0  0  0  0  0  0
    1.8910   -0.9590    0.4032 O   0  0  0  0  0  0  0  0  0  0  0  0
    3.2606   -1.2968    0.9885 C   0  0  1  0  0  0  0  0  0  0  0  0
    3.6132   -2.4030   -0.2316 C   0  0  0  0  0  0  0  0  0  0  0  0
    4.9771   -3.1022    0.3394 C   0  0  2  0  0  0  0  0  0  0  0  0
    4.6034   -3.3067    1.8481 N   0  0  0  0  0  0  0  0  0  0  0  0
    5.9441   -1.7012    0.4363 C   0  0  2  0  0  0  0  0  0  0  0  0
    5.6254   -1.1779    1.7704 O   0  0  0  0  0  0  0  0  0  0  0  0
    4.9711   -0.6907   -0.5496 C   0  0  2  0  0  0  0  0  0  0  0  0
    6.0635    0.5409   -0.4058 C   0  0  0  0  0  0  0  0  0  0  0  0
    4.0431   -0.1123    0.4585 O   0  0  0  0  0  0  0  0  0  0  0  0
  1  2  1  0
  2  3  1  0
  3  4  2  0
  4  5  1  0
  5  6  2  0
  6  7  1  0
  7  8  2  0
  8  9  1  0
  9 10  2  0
  9 11  1  0
 11 12  2  0
 12 13  1  0
 12 14  1  0
 14 15  2  0
 15 16  1  0
 16 17  1  0
 16 18  2  0
 18 19  1  0
 19 20  2  0
 15 21  1  0
 21 22  1  0
 22 23  1  6
 22 24  1  0
 24 25  2  0
 24 26  1  0
 26 27  1  0
 22 28  1  0
 28 29  1  0
 29 30  1  6
 31 30  1  6
 31 32  1  0
 32 33  1  0
 33 34  1  1
 33 35  1  0
 35 36  1  1
 35 37  1  0
 37 38  1  1
 37 39  1  0
  8  3  1  0
 18 11  1  0
 39 31  1  0
 19  7  1  0
 29 14  1  0
M  END
>  <zinc_id>  (1) 
ZINC000003918087

>  <smiles>  (1) 
COc1cccc2c1C(=O)c1c(O)c3c(c(O)c1C2=O)C[C@@](O)(C(=O)CO)C[C@@H]3O[C@H]1C[C@H](N)[C@H](O)[C@H](C)O1

$$$$
