
     RDKit          3D

 39 42  0  0  0  0  0  0  0  0999 V2000
   -1.5921    1.4982    4.1678 C   0  0  0  0  0  0  0  0  0  0  0  0
   -1.1694    1.5697    2.8223 O   0  0  0  0  0  0  0  0  0  0  0  0
   -1.1606    2.7099    2.0509 C   0  0  0  0  0  0  0  0  0  0  0  0
   -1.6188    3.8826    2.6659 C   0  0  0  0  0  0  0  0  0  0  0  0
   -1.6554    5.0709    1.9807 C   0  0  0  0  0  0  0  0  0  0  0  0
   -1.2330    5.1326    0.6587 C   0  0  0  0  0  0  0  0  0  0  0  0
   -0.7857    3.9983    0.0518 C   0  0  0  0  0  0  0  0  0  0  0  0
   -0.7544    2.7939    0.7644 C   0  0  0  0  0  0  0  0  0  0  0  0
   -0.2792    1.6695    0.0540 O   0  0  0  0  0  0  0  0  0  0  0  0
   -1.0611    0.5343   -0.1259 C   0  0  0  0  0  0  0  0  0  0  0  0
   -0.6730   -0.6369    0.4713 C   0  0  0  0  0  0  0  0  0  0  0  0
    0.4006   -0.9161    1.2035 N   0  0  0  0  0  0  0  0  0  0  0  0
    1.7597   -0.9637    2.0282 S   0  0  0  0  0  0  0  0  0  0  0  0
    2.0426   -2.3124    2.7363 O   0  0  0  0  0  0  0  0  0  0  0  0
    1.9043    0.0676    3.1683 O   0  0  0  0  0  0  0  0  0  0  0  0
    3.1868   -0.6789    1.0125 C   0  0  0  0  0  0  0  0  0  0  0  0
    3.8595   -1.7980    0.5035 C   0  0  0  0  0  0  0  0  0  0  0  0
    4.9550   -1.6096   -0.2676 C   0  0  0  0  0  0  0  0  0  0  0  0
    5.4805   -0.3737   -0.6069 C   0  0  0  0  0  0  0  0  0  0  0  0
    6.7058   -0.3013   -1.4522 C   0  0  0  0  0  0  0  0  0  0  0  0
    6.5538   -1.0758   -2.7431 C   0  0  0  0  0  0  0  0  0  0  0  0
    7.0559    1.1234   -1.7790 C   0  0  0  0  0  0  0  0  0  0  0  0
    7.8496   -0.9102   -0.6434 C   0  0  0  0  0  0  0  0  0  0  0  0
    4.8079    0.7133   -0.1007 C   0  0  0  0  0  0  0  0  0  0  0  0
    3.6698    0.5536    0.7029 C   0  0  0  0  0  0  0  0  0  0  0  0
   -1.5405   -1.6993    0.2402 N   0  0  0  0  0  0  0  0  0  0  0  0
   -2.6471   -1.5962   -0.4953 C   0  0  0  0  0  0  0  0  0  0  0  0
   -3.5208   -2.7727   -0.7050 C   0  0  0  0  0  0  0  0  0  0  0  0
   -4.6283   -2.6413   -1.4449 N   0  0  0  0  0  0  0  0  0  0  0  0
   -5.4726   -3.6491   -1.6921 C   0  0  0  0  0  0  0  0  0  0  0  0
   -5.1749   -4.8906   -1.1478 C   0  0  0  0  0  0  0  0  0  0  0  0
   -4.0209   -5.0008   -0.3851 C   0  0  0  0  0  0  0  0  0  0  0  0
   -3.2135   -3.9628   -0.1697 N   0  0  0  0  0  0  0  0  0  0  0  0
   -2.9710   -0.4289   -1.0543 N   0  0  0  0  0  0  0  0  0  0  0  0
   -2.2184    0.6742   -0.9074 C   0  0  0  0  0  0  0  0  0  0  0  0
   -2.5494    1.8910   -1.4887 O   0  0  0  0  0  0  0  0  0  0  0  0
   -3.7226    1.9783   -2.2630 C   0  0  0  0  0  0  0  0  0  0  0  0
   -3.7890    1.0780   -3.4428 C   0  0  0  0  0  0  0  0  0  0  0  0
   -2.7800    1.2793   -4.3682 O   0  0  0  0  0  0  0  0  0  0  0  0
  1  2  1  0
  2  3  1  0
  3  4  2  0
  4  5  1  0
  5  6  2  0
  6  7  1  0
  7  8  2  0
  8  9  1  0
  9 10  1  0
 10 11  1  0
 11 12  1  0
 12 13  1  0
 13 14  2  0
 13 15  2  0
 13 16  1  0
 16 17  2  0
 17 18  1  0
 18 19  2  0
 19 20  1  0
 20 21  1  0
 20 22  1  0
 20 23  1  0
 19 24  1  0
 24 25  2  0
 11 26  2  0
 26 27  1  0
 27 28  1  0
 28 29  2  0
 29 30  1  0
 30 31  2  0
 31 32  1  0
 32 33  2  0
 27 34  2  0
 34 35  1  0
 35 36  1  0
 36 37  1  0
 37 38  1  0
 38 39  1  0
  8  3  1  0
 35 10  2  0
 25 16  1  0
 33 28  1  0
M  END
>  <zinc_id>  (1) 
ZINC000001538857

>  <smiles>  (1) 
COc1ccccc1Oc1c(NS(=O)(=O)c2ccc(C(C)(C)C)cc2)nc(-c2ncccn2)nc1OCCO

$$$$
