
     RDKit          3D

 19 22  0  0  0  0  0  0  0  0999 V2000
   -3.4309   -1.1529   -0.8598 C   0  0  0  0  0  0  0  0  0  0  0  0
   -2.5606   -1.4869   -1.0827 N   0  0  0  0  0  0  0  0  0  0  0  0
   -1.9358   -2.3141   -0.1679 C   0  0  0  0  0  0  0  0  0  0  0  0
   -0.7682   -1.9561    0.6032 C   0  0  0  0  0  0  0  0  0  0  0  0
   -0.4530   -0.5235    0.8105 C   0  0  2  0  0  0  0  0  0  0  0  0
   -0.5545   -0.0188    2.2029 C   0  0  0  0  0  0  0  0  0  0  0  0
   -0.3278    1.4405    2.3025 C   0  0  0  0  0  0  0  0  0  0  0  0
   -0.9820    2.2895    1.2690 C   0  0  0  0  0  0  0  0  0  0  0  0
   -0.8929    1.6705   -0.1345 C   0  0  0  0  0  0  0  0  0  0  0  0
   -1.6714    0.2835    0.1336 C   0  0  1  0  0  0  0  0  0  0  0  0
   -1.6257   -0.2637   -1.4596 C   0  0  1  0  0  0  0  0  0  0  0  0
   -0.3076   -1.1522   -1.5530 C   0  0  0  0  0  0  0  0  0  0  0  0
    0.8802   -0.4273   -1.1221 C   0  0  0  0  0  0  0  0  0  0  0  0
    1.9974   -0.0732   -1.8228 C   0  0  0  0  0  0  0  0  0  0  0  0
    3.0168    0.6083   -1.1613 C   0  0  0  0  0  0  0  0  0  0  0  0
    2.9686    0.9523    0.1727 C   0  0  0  0  0  0  0  0  0  0  0  0
    4.0164    1.6333    0.7833 O   0  0  0  0  0  0  0  0  0  0  0  0
    1.8193    0.5815    0.8682 C   0  0  0  0  0  0  0  0  0  0  0  0
    0.8117   -0.0908    0.2177 C   0  0  0  0  0  0  0  0  0  0  0  0
  1  2  1  0
  2  3  1  0
  3  4  1  0
  5  4  1  1
  5  6  1  0
  6  7  1  0
  7  8  1  0
  8  9  1  0
 10  9  1  6
 10 11  1  0
 11 12  1  1
 12 13  1  0
 13 14  2  0
 14 15  1  0
 15 16  2  0
 16 17  1  0
 16 18  1  0
 18 19  2  0
 11  2  1  0
 19 13  1  0
 10  5  1  0
 19  5  1  0
M  END
>  <zinc_id>  (1) 
ZINC000003812984

>  <smiles>  (1) 
CN1CC[C@]23CCCC[C@H]2[C@H]1Cc1ccc(O)cc13

$$$$
