
     RDKit          3D

 15 15  0  0  0  0  0  0  0  0999 V2000
    2.9417   -1.4056    1.6263 C   0  0  0  0  0  0  0  0  0  0  0  0
    2.5390   -1.0507    0.2735 N   0  0  0  0  0  0  0  0  0  0  0  0
    3.3883   -1.2825   -0.8636 C   0  0  0  0  0  0  0  0  0  0  0  0
    1.2503   -0.4557    0.1341 C   0  0  0  0  0  0  0  0  0  0  0  0
    1.0341    0.8636    0.1877 N   0  0  0  0  0  0  0  0  0  0  0  0
   -0.2132    1.3388    0.0456 C   0  0  0  0  0  0  0  0  0  0  0  0
   -0.3909    2.7563    0.1111 N   0  0  0  0  0  0  0  0  0  0  0  0
   -0.6932    3.3216    1.4061 C   0  0  0  0  0  0  0  0  0  0  0  0
   -0.2716    3.6012   -1.0712 C   0  0  0  0  0  0  0  0  0  0  0  0
   -1.2371    0.4999   -0.1481 N   0  0  0  0  0  0  0  0  0  0  0  0
   -1.0361   -0.8268   -0.2041 C   0  0  0  0  0  0  0  0  0  0  0  0
   -2.1276   -1.7162   -0.4085 N   0  0  0  0  0  0  0  0  0  0  0  0
   -1.9225   -3.1479   -0.4797 C   0  0  0  0  0  0  0  0  0  0  0  0
   -3.4799   -1.2213   -0.5494 C   0  0  0  0  0  0  0  0  0  0  0  0
    0.2186   -1.2747   -0.0599 N   0  0  0  0  0  0  0  0  0  0  0  0
  1  2  1  0
  2  3  1  0
  2  4  1  0
  4  5  2  0
  5  6  1  0
  6  7  1  0
  7  8  1  0
  7  9  1  0
  6 10  2  0
 10 11  1  0
 11 12  1  0
 12 13  1  0
 12 14  1  0
 11 15  2  0
 15  4  1  0
M  END
>  <zinc_id>  (1) 
ZINC000000000905

>  <smiles>  (1) 
CN(C)c1nc(N(C)C)nc(N(C)C)n1

$$$$
