
     RDKit          3D

 26 29  0  0  0  0  0  0  0  0999 V2000
   -2.6479    2.8279    1.6222 C   0  0  0  0  0  0  0  0  0  0  0  0
   -1.7542    2.6990    0.2443 C   0  0  1  0  0  0  0  0  0  0  0  0
   -0.3340    2.7501    1.0214 C   0  0  0  0  0  0  0  0  0  0  0  0
    0.5818    2.1857    0.0541 O   0  0  0  0  0  0  0  0  0  0  0  0
    0.4082    0.8057   -0.1645 C   0  0  0  0  0  0  0  0  0  0  0  0
    1.4526   -0.0284   -0.3910 C   0  0  0  0  0  0  0  0  0  0  0  0
    2.7794    0.4925   -0.4209 N   0  0  0  0  0  0  0  0  0  0  0  0
    3.5217    0.5386    0.8092 C   0  0  0  0  0  0  0  0  0  0  0  0
    4.9748    0.1522    0.6163 C   0  0  0  0  0  0  0  0  0  0  0  0
    5.3156   -0.1284   -0.7098 N   0  0  0  0  0  0  0  0  0  0  0  0
    5.9057   -1.3539   -1.0210 C   0  0  0  0  0  0  0  0  0  0  0  0
    4.8339    0.6879   -1.7345 C   0  0  0  0  0  0  0  0  0  0  0  0
    3.3294    0.9537   -1.6804 C   0  0  0  0  0  0  0  0  0  0  0  0
    1.2122   -1.3934   -0.5936 C   0  0  0  0  0  0  0  0  0  0  0  0
    2.2185   -2.2336   -0.8180 F   0  0  0  0  0  0  0  0  0  0  0  0
   -0.0883   -1.8565   -0.5570 C   0  0  0  0  0  0  0  0  0  0  0  0
   -1.1410   -1.0197   -0.3308 C   0  0  0  0  0  0  0  0  0  0  0  0
   -2.4460   -1.4286   -0.2777 C   0  0  0  0  0  0  0  0  0  0  0  0
   -2.7134   -2.6495   -0.4515 O   0  0  0  0  0  0  0  0  0  0  0  0
   -3.5009   -0.5819   -0.0436 C   0  0  0  0  0  0  0  0  0  0  0  0
   -4.8749   -1.0992   -0.0007 C   0  0  0  0  0  0  0  0  0  0  0  0
   -5.0897   -2.3244   -0.1791 O   0  0  0  0  0  0  0  0  0  0  0  0
   -5.9647   -0.2842    0.2317 O   0  0  0  0  0  0  0  0  0  0  0  0
   -3.1925    0.7362    0.1411 C   0  0  0  0  0  0  0  0  0  0  0  0
   -1.8940    1.1901    0.0952 N   0  0  0  0  0  0  0  0  0  0  0  0
   -0.8923    0.3621   -0.1283 C   0  0  0  0  0  0  0  0  0  0  0  0
  2  1  1  1
  2  3  1  0
  3  4  1  0
  4  5  1  0
  5  6  1  0
  6  7  1  0
  7  8  1  0
  8  9  1  0
  9 10  1  0
 10 11  1  0
 10 12  1  0
 12 13  1  0
  6 14  2  0
 14 15  1  0
 14 16  1  0
 16 17  2  0
 17 18  1  0
 18 19  2  0
 18 20  1  0
 20 21  1  0
 21 22  2  0
 21 23  1  0
 20 24  2  0
 24 25  1  0
 25 26  1  0
 25  2  1  0
 26  5  2  0
 13  7  1  0
 26 17  1  0
M  END
>  <zinc_id>  (1) 
ZINC000000538273

>  <smiles>  (1) 
C[C@H]1COc2c(N3CCN(C)CC3)c(F)cc3c(=O)c(C(=O)O)cn1c23

$$$$
