
     RDKit          3D

 31 35  0  0  0  0  0  0  0  0999 V2000
   -3.7108    2.3950    0.2367 C   0  0  0  0  0  0  0  0  0  0  0  0
   -3.0757    2.3448    0.1639 C   0  0  0  0  0  0  0  0  0  0  0  0
   -2.3497    3.6206   -0.3138 C   0  0  0  0  0  0  0  0  0  0  0  0
   -2.2796    1.9393    1.2517 O   0  0  0  0  0  0  0  0  0  0  0  0
   -2.8034    0.4965    1.3721 C   0  0  2  0  0  0  0  0  0  0  0  0
   -1.2939   -0.0781    1.8162 C   0  0  0  0  0  0  0  0  0  0  0  0
   -0.5677    0.4835    0.4787 C   0  0  1  0  0  0  0  0  0  0  0  0
    0.7388   -0.6302    0.6048 C   0  0  2  0  0  0  0  0  0  0  0  0
    1.5467    0.5147    1.4502 C   0  0  0  0  0  0  0  0  0  0  0  0
    2.9617   -0.3103    1.6978 C   0  0  2  0  0  0  0  0  0  0  0  0
    3.6465    0.9210    2.2743 F   0  0  0  0  0  0  0  0  0  0  0  0
    3.5238   -0.1790    0.2281 C   0  0  0  0  0  0  0  0  0  0  0  0
    4.6171    0.4916    0.0283 C   0  0  0  0  0  0  0  0  0  0  0  0
    5.1401    0.5986   -1.3706 C   0  0  0  0  0  0  0  0  0  0  0  0
    5.8110    1.5333   -1.7319 O   0  0  0  0  0  0  0  0  0  0  0  0
    4.7566   -0.5426   -2.2542 C   0  0  0  0  0  0  0  0  0  0  0  0
    3.2861   -0.6521   -2.1832 C   0  0  0  0  0  0  0  0  0  0  0  0
    2.7723   -0.8407   -0.8084 C   0  0  1  0  0  0  0  0  0  0  0  0
    2.6358   -2.2620   -0.4482 C   0  0  0  0  0  0  0  0  0  0  0  0
    1.3417   -0.0548   -0.8176 C   0  0  1  0  0  0  0  0  0  0  0  0
    0.5619   -1.0580   -1.9370 C   0  0  1  0  0  0  0  0  0  0  0  0
    0.3266   -2.2969   -1.1098 O   0  0  0  0  0  0  0  0  0  0  0  0
   -0.9554   -0.4487   -1.7261 C   0  0  0  0  0  0  0  0  0  0  0  0
   -1.4496   -0.5870   -0.4065 C   0  0  1  0  0  0  0  0  0  0  0  0
   -1.6235   -1.8195    0.3327 C   0  0  0  0  0  0  0  0  0  0  0  0
   -2.6660    0.1730   -0.2366 C   0  0  1  0  0  0  0  0  0  0  0  0
   -3.8640   -0.6187   -0.5531 C   0  0  0  0  0  0  0  0  0  0  0  0
   -4.7095   -0.0989   -1.2903 O   0  0  0  0  0  0  0  0  0  0  0  0
   -4.1902   -1.9821   -0.0905 C   0  0  0  0  0  0  0  0  0  0  0  0
   -5.3854   -2.4580   -0.5542 O   0  0  0  0  0  0  0  0  0  0  0  0
   -2.7424    1.4058   -0.7984 O   0  0  0  0  0  0  0  0  0  0  0  0
  1  2  1  0
  2  3  1  0
  2  4  1  0
  4  5  1  0
  5  6  1  1
  7  6  1  1
  7  8  1  0
  8  9  1  1
  9 10  1  0
 10 11  1  1
 10 12  1  0
 12 13  2  0
 13 14  1  0
 14 15  2  0
 14 16  1  0
 16 17  1  0
 17 18  1  0
 18 19  1  1
 18 20  1  0
 20 21  1  6
 21 22  1  1
 21 23  1  0
 23 24  1  0
 24 25  1  1
 24 26  1  0
 26 27  1  6
 27 28  2  0
 27 29  1  0
 29 30  1  0
 26 31  1  0
 31  2  1  0
 26  5  1  0
 24  7  1  0
 20  8  1  0
 18 12  1  0
M  END
>  <zinc_id>  (1) 
ZINC000004097308

>  <smiles>  (1) 
CC1(C)O[C@@H]2C[C@H]3[C@@H]4C[C@H](F)C5=CC(=O)CC[C@]5(C)[C@H]4[C@@H](O)C[C@]3(C)[C@]2(C(=O)CO)O1

$$$$
