
     RDKit          3D

 10 10  0  0  0  0  0  0  0  0999 V2000
    2.3355    0.6531    0.9452 O   0  0  0  0  0  0  0  0  0  0  0  0
    2.1871   -0.1547    0.0130 C   0  0  0  0  0  0  0  0  0  0  0  0
    2.9147   -1.3442   -0.0020 O   0  0  0  0  0  0  0  0  0  0  0  0
    1.2022    0.2370   -1.0410 C   0  0  0  0  0  0  0  0  0  0  0  0
   -0.1782    0.1687   -0.4715 C   0  0  0  0  0  0  0  0  0  0  0  0
   -0.6639    1.2182    0.2654 C   0  0  0  0  0  0  0  0  0  0  0  0
   -1.9480    1.1575    0.7647 C   0  0  0  0  0  0  0  0  0  0  0  0
   -2.7036    0.0333    0.5013 C   0  0  0  0  0  0  0  0  0  0  0  0
   -2.2113   -1.0105   -0.2365 C   0  0  0  0  0  0  0  0  0  0  0  0
   -0.9345   -0.9584   -0.7387 C   0  0  0  0  0  0  0  0  0  0  0  0
  1  2  2  0
  2  3  1  0
  2  4  1  0
  4  5  1  0
  5  6  2  0
  6  7  1  0
  7  8  2  0
  8  9  1  0
  9 10  2  0
 10  5  1  0
M  END
>  <zinc_id>  (1) 
ZINC000000388462

>  <smiles>  (1) 
O=C(O)Cc1ccccc1

$$$$
