
     RDKit          3D

 26 27  0  0  0  0  0  0  0  0999 V2000
    6.6079    3.5671    0.6743 C   0  0  0  0  0  0  0  0  0  0  0  0
    6.3459    2.2892    0.5690 C   0  0  0  0  0  0  0  0  0  0  0  0
    6.1031    1.0819    0.4660 C   0  0  0  0  0  0  0  0  0  0  0  0
    5.8119   -0.3687    0.3408 C   0  0  0  0  0  0  0  0  0  0  0  0
    4.2170   -0.3878    0.4986 C   0  0  1  0  0  0  0  0  0  0  0  0
    3.8894    0.5452   -0.7604 C   0  0  0  0  0  0  0  0  0  0  0  0
    4.0616   -1.9217   -0.2089 C   0  0  2  0  0  0  0  0  0  0  0  0
    4.6632   -1.6125   -1.5467 O   0  0  0  0  0  0  0  0  0  0  0  0
    2.5444   -1.6194   -0.6972 C   0  0  0  0  0  0  0  0  0  0  0  0
    1.7622   -1.5322    0.3833 C   0  0  0  0  0  0  0  0  0  0  0  0
    0.2459   -1.2363    0.0159 C   0  0  1  0  0  0  0  0  0  0  0  0
   -0.3562   -2.1757    1.2698 C   0  0  2  0  0  0  0  0  0  0  0  0
   -0.7527   -3.2899    0.3108 O   0  0  0  0  0  0  0  0  0  0  0  0
   -1.7506   -1.3503    0.9853 C   0  0  0  0  0  0  0  0  0  0  0  0
   -1.1538   -0.0936    1.7766 C   0  0  2  0  0  0  0  0  0  0  0  0
   -2.1171    0.9894    1.0813 C   0  0  0  0  0  0  0  0  0  0  0  0
   -1.8333    0.7284   -0.3155 C   0  0  0  0  0  0  0  0  0  0  0  0
   -2.6715    0.3579   -1.2241 C   0  0  0  0  0  0  0  0  0  0  0  0
   -3.9562    0.0771   -1.3513 C   0  0  0  0  0  0  0  0  0  0  0  0
   -5.2436   -0.2042   -1.4782 C   0  0  0  0  0  0  0  0  0  0  0  0
   -6.3960    0.7116   -1.2226 C   0  0  0  0  0  0  0  0  0  0  0  0
   -6.5143    1.2274    0.1393 C   0  0  0  0  0  0  0  0  0  0  0  0
   -5.7299    0.9185    1.0700 O   0  0  0  0  0  0  0  0  0  0  0  0
   -7.5331    2.1185    0.4994 O   0  0  0  0  0  0  0  0  0  0  0  0
   -0.4471    0.9966   -0.3363 C   0  0  0  0  0  0  0  0  0  0  0  0
    0.2028    0.1835    0.8651 C   0  0  2  0  0  0  0  0  0  0  0  0
  1  2  1  0
  2  3  3  0
  3  4  1  0
  4  5  1  0
  5  6  1  6
  5  7  1  0
  7  8  1  6
  7  9  1  0
  9 10  2  0
 11 10  1  1
 11 12  1  0
 12 13  1  6
 12 14  1  0
 15 14  1  6
 15 16  1  0
 16 17  1  0
 17 18  2  0
 18 19  1  0
 19 20  1  0
 20 21  1  0
 21 22  1  0
 22 23  2  0
 22 24  1  0
 17 25  1  0
 26 25  1  6
 26 11  1  0
 26 15  1  0
M  END
>  <zinc_id>  (1) 
ZINC000003784120

>  <smiles>  (1) 
CC#CC[C@@H](C)[C@H](O)/C=C/[C@@H]1[C@H]2C/C(=C/CCCC(=O)O)C[C@H]2C[C@H]1O

$$$$
