
     RDKit          3D

 17 18  0  0  0  0  0  0  0  0999 V2000
   -1.3221    3.6909   -0.2099 C   0  0  0  0  0  0  0  0  0  0  0  0
   -1.0729    2.5394    0.5020 O   0  0  0  0  0  0  0  0  0  0  0  0
    0.1327    1.8479    0.3503 C   0  0  0  0  0  0  0  0  0  0  0  0
    0.9371    2.3070   -0.4291 O   0  0  0  0  0  0  0  0  0  0  0  0
    0.3339    0.5390    1.2070 C   0  0  1  0  0  0  0  0  0  0  0  0
   -0.8179   -0.3163    0.6363 C   0  0  0  0  0  0  0  0  0  0  0  0
   -0.7676   -1.4966    0.0508 C   0  0  0  0  0  0  0  0  0  0  0  0
   -1.8853   -2.1444   -0.4001 C   0  0  0  0  0  0  0  0  0  0  0  0
   -3.1044   -1.5331   -0.2316 C   0  0  0  0  0  0  0  0  0  0  0  0
   -3.2261   -0.2994    0.3726 C   0  0  0  0  0  0  0  0  0  0  0  0
   -2.0489    0.2798    0.7958 C   0  0  0  0  0  0  0  0  0  0  0  0
    1.7078    0.0409    0.4131 C   0  0  2  0  0  0  0  0  0  0  0  0
    1.1934   -0.1401   -1.0926 C   0  0  0  0  0  0  0  0  0  0  0  0
    2.4656   -0.4513   -1.8229 C   0  0  0  0  0  0  0  0  0  0  0  0
    3.3489   -1.2540   -0.8918 C   0  0  0  0  0  0  0  0  0  0  0  0
    2.4818   -2.1800   -0.0805 C   0  0  0  0  0  0  0  0  0  0  0  0
    1.6439   -1.4297    0.8306 N   0  0  0  0  0  0  0  0  0  0  0  0
  1  2  1  0
  2  3  1  0
  3  4  2  0
  5  3  1  6
  5  6  1  0
  6  7  2  0
  7  8  1  0
  8  9  2  0
  9 10  1  0
 10 11  2  0
  5 12  1  0
 12 13  1  6
 13 14  1  0
 14 15  1  0
 15 16  1  0
 16 17  1  0
 11  6  1  0
 17 12  1  0
M  END
>  <zinc_id>  (1) 
ZINC000002522648

>  <smiles>  (1) 
COC(=O)[C@@H](c1ccccc1)[C@@H]1CCCCN1

$$$$
