
     RDKit          3D

 25 27  0  0  0  0  0  0  0  0999 V2000
   -3.8469   -3.7430   -0.2414 C   0  0  0  0  0  0  0  0  0  0  0  0
   -3.8539   -2.2342   -0.2019 C   0  0  0  0  0  0  0  0  0  0  0  0
   -2.5004   -1.7025   -0.5509 C   0  0  0  0  0  0  0  0  0  0  0  0
   -1.5563   -2.5247   -0.8285 O   0  0  0  0  0  0  0  0  0  0  0  0
   -2.2849   -0.3139   -0.5687 N   0  0  0  0  0  0  0  0  0  0  0  0
   -3.4019    0.5370   -0.2521 C   0  0  0  0  0  0  0  0  0  0  0  0
   -3.6668    0.9191    1.0478 C   0  0  0  0  0  0  0  0  0  0  0  0
   -4.7344    1.7372    1.3549 C   0  0  0  0  0  0  0  0  0  0  0  0
   -5.5809    2.2067    0.3737 C   0  0  0  0  0  0  0  0  0  0  0  0
   -5.3365    1.8383   -0.9314 C   0  0  0  0  0  0  0  0  0  0  0  0
   -4.2584    1.0154   -1.2224 C   0  0  0  0  0  0  0  0  0  0  0  0
   -1.0200    0.2460   -0.8775 C   0  0  0  0  0  0  0  0  0  0  0  0
   -0.3875    0.9773    0.2838 C   0  0  0  0  0  0  0  0  0  0  0  0
    0.7525    0.1907    0.8836 C   0  0  0  0  0  0  0  0  0  0  0  0
    1.8417    0.0171   -0.0596 N   0  0  0  0  0  0  0  0  0  0  0  0
    2.4325   -1.2964    0.2424 C   0  0  0  0  0  0  0  0  0  0  0  0
    3.6370   -1.4517   -0.7029 C   0  0  0  0  0  0  0  0  0  0  0  0
    4.5362   -0.3196   -0.3737 C   0  0  0  0  0  0  0  0  0  0  0  0
    5.4825   -0.5034    0.6044 C   0  0  0  0  0  0  0  0  0  0  0  0
    6.3525    0.5271    0.9720 C   0  0  0  0  0  0  0  0  0  0  0  0
    6.2795    1.7530    0.3588 C   0  0  0  0  0  0  0  0  0  0  0  0
    5.3360    1.9480   -0.6222 C   0  0  0  0  0  0  0  0  0  0  0  0
    4.4764    0.9140   -0.9778 C   0  0  0  0  0  0  0  0  0  0  0  0
    1.3427   -0.0677   -1.4234 C   0  0  0  0  0  0  0  0  0  0  0  0
   -0.0406   -0.6700   -1.4870 C   0  0  0  0  0  0  0  0  0  0  0  0
  1  2  1  0
  2  3  1  0
  3  4  2  0
  3  5  1  0
  5  6  1  0
  6  7  2  0
  7  8  1  0
  8  9  2  0
  9 10  1  0
 10 11  2  0
  5 12  1  0
 12 13  1  0
 13 14  1  0
 14 15  1  0
 15 16  1  0
 16 17  1  0
 17 18  1  0
 18 19  2  0
 19 20  1  0
 20 21  2  0
 21 22  1  0
 22 23  2  0
 15 24  1  0
 24 25  1  0
 11  6  1  0
 25 12  1  0
 23 18  1  0
M  END
>  <zinc_id>  (1) 
ZINC000002522669

>  <smiles>  (1) 
CCC(=O)N(c1ccccc1)C1CCN(CCc2ccccc2)CC1

$$$$
