
     RDKit          3D

 13 12  0  0  0  0  0  0  0  0999 V2000
    3.4709    1.2737   -0.7784 O   0  0  0  0  0  0  0  0  0  0  0  0
    4.0410    0.3473   -0.1635 C   0  0  0  0  0  0  0  0  0  0  0  0
    5.4149    0.2257   -0.1502 O   0  0  0  0  0  0  0  0  0  0  0  0
    3.2772   -0.6988    0.6035 C   0  0  0  0  0  0  0  0  0  0  0  0
    1.7927   -0.4690    0.5018 C   0  0  0  0  0  0  0  0  0  0  0  0
    1.3130   -0.5176   -0.9347 C   0  0  0  0  0  0  0  0  0  0  0  0
   -0.1689   -0.2889   -1.0253 C   0  0  0  0  0  0  0  0  0  0  0  0
   -0.8659   -1.3719   -0.2343 C   0  0  0  0  0  0  0  0  0  0  0  0
   -2.3638   -1.1105   -0.3496 C   0  0  0  0  0  0  0  0  0  0  0  0
   -2.6106    0.2550    0.2253 C   0  0  0  0  0  0  0  0  0  0  0  0
   -4.0248    0.6499    0.1837 C   0  0  0  0  0  0  0  0  0  0  0  0
   -4.8087    0.1819    1.0423 O   0  0  0  0  0  0  0  0  0  0  0  0
   -4.4669    1.5232   -0.7911 O   0  0  0  0  0  0  0  0  0  0  0  0
  1  2  2  0
  2  3  1  0
  2  4  1  0
  4  5  1  0
  5  6  1  0
  6  7  1  0
  7  8  1  0
  8  9  1  0
  9 10  1  0
 10 11  1  0
 11 12  2  0
 11 13  1  0
M  END
>  <zinc_id>  (1) 
ZINC000001531036

>  <smiles>  (1) 
O=C(O)CCCCCCCC(=O)O

$$$$
