
     RDKit          3D

 35 41  0  0  0  0  0  0  0  0999 V2000
    4.5966   -0.3257    2.0839 O   0  0  0  0  0  0  0  0  0  0  0  0
    4.5150   -0.8983    1.0293 C   0  0  0  0  0  0  0  0  0  0  0  0
    5.6930   -1.8632    0.6465 C   0  0  2  0  0  0  0  0  0  0  0  0
    7.0698   -0.9904    1.0449 C   0  0  1  0  0  0  0  0  0  0  0  0
    7.9348   -1.2645   -0.3270 C   0  0  0  0  0  0  0  0  0  0  0  0
    7.7174   -0.1383   -1.2036 C   0  0  0  0  0  0  0  0  0  0  0  0
    6.1131    0.0917   -0.9649 C   0  0  2  0  0  0  0  0  0  0  0  0
    6.4196    0.3762    0.5756 C   0  0  0  0  0  0  0  0  0  0  0  0
    5.7519   -1.5475   -0.9573 C   0  0  2  0  0  0  0  0  0  0  0  0
    4.2155   -1.3940   -1.1856 C   0  0  0  0  0  0  0  0  0  0  0  0
    3.6634   -1.6522   -2.2892 O   0  0  0  0  0  0  0  0  0  0  0  0
    3.6049   -0.9417   -0.0006 N   0  0  0  0  0  0  0  0  0  0  0  0
    2.2191   -0.5985    0.0783 C   0  0  0  0  0  0  0  0  0  0  0  0
    1.9460    0.9050   -0.3314 C   0  0  2  0  0  0  0  0  0  0  0  0
    2.8118    1.6364    0.7937 C   0  0  0  0  0  0  0  0  0  0  0  0
    2.4400    3.1002    0.5263 C   0  0  0  0  0  0  0  0  0  0  0  0
    0.9796    3.3492    0.7890 C   0  0  0  0  0  0  0  0  0  0  0  0
    0.0897    2.4156   -0.0372 C   0  0  0  0  0  0  0  0  0  0  0  0
    0.5075    0.9830    0.6179 C   0  0  1  0  0  0  0  0  0  0  0  0
   -0.2913    0.0866   -0.4744 C   0  0  0  0  0  0  0  0  0  0  0  0
   -1.6196   -0.0588    0.0290 N   0  0  0  0  0  0  0  0  0  0  0  0
   -1.6615   -0.8836    1.2308 C   0  0  0  0  0  0  0  0  0  0  0  0
   -2.9914   -0.4777    1.8875 C   0  0  0  0  0  0  0  0  0  0  0  0
   -3.9635   -0.5556    0.8260 N   0  0  0  0  0  0  0  0  0  0  0  0
   -5.2628    0.0712    0.9276 C   0  0  0  0  0  0  0  0  0  0  0  0
   -5.5546    0.7380    2.0452 N   0  0  0  0  0  0  0  0  0  0  0  0
   -7.1055    1.3103    1.8000 S   0  0  0  0  0  0  0  0  0  0  0  0
   -7.3853    0.6849    0.2387 C   0  0  0  0  0  0  0  0  0  0  0  0
   -8.4525    0.7212   -0.6745 C   0  0  0  0  0  0  0  0  0  0  0  0
   -8.3802    0.0994   -1.9021 C   0  0  0  0  0  0  0  0  0  0  0  0
   -7.1963   -0.5467   -2.1507 C   0  0  0  0  0  0  0  0  0  0  0  0
   -6.1542   -0.5979   -1.2914 C   0  0  0  0  0  0  0  0  0  0  0  0
   -6.2179    0.0336   -0.0357 C   0  0  0  0  0  0  0  0  0  0  0  0
   -3.6098   -1.2847   -0.3626 C   0  0  0  0  0  0  0  0  0  0  0  0
   -2.4423   -0.5831   -1.0191 C   0  0  0  0  0  0  0  0  0  0  0  0
  1  2  2  0
  3  2  1  1
  3  4  1  0
  4  5  1  6
  5  6  1  0
  7  6  1  6
  7  8  1  0
  7  9  1  0
  9 10  1  1
 10 11  2  0
 10 12  1  0
 12 13  1  0
 14 13  1  1
 14 15  1  0
 15 16  1  0
 16 17  1  0
 17 18  1  0
 18 19  1  0
 19 20  1  6
 20 21  1  0
 21 22  1  0
 22 23  1  0
 23 24  1  0
 24 25  1  0
 25 26  2  0
 26 27  1  0
 27 28  1  0
 28 29  2  0
 29 30  1  0
 30 31  2  0
 31 32  1  0
 32 33  2  0
 24 34  1  0
 34 35  1  0
 12  2  1  0
 19 14  1  0
 35 21  1  0
  9  3  1  0
 33 25  1  0
  8  4  1  0
 33 28  1  0
M  END
>  <zinc_id>  (1) 
ZINC000003927822

>  <smiles>  (1) 
O=C1[C@H]2[C@@H]3CC[C@@H](C3)[C@H]2C(=O)N1C[C@@H]1CCCC[C@H]1CN1CCN(c2nsc3ccccc23)CC1

$$$$
