
     RDKit          3D

 11 10  0  0  0  0  0  0  0  0999 V2000
    3.7098   -0.2952   -0.2775 C   0  0  0  0  0  0  0  0  0  0  0  0
    2.3807   -0.4527    0.0699 C   0  0  0  0  0  0  0  0  0  0  0  0
    1.8256   -1.5744   -0.0585 O   0  0  0  0  0  0  0  0  0  0  0  0
    1.5609    0.5360    0.5656 O   0  0  0  0  0  0  0  0  0  0  0  0
    0.1061    0.0968    0.8768 C   0  0  1  0  0  0  0  0  0  0  0  0
   -0.3168    1.6421    1.4007 C   0  0  0  0  0  0  0  0  0  0  0  0
   -0.4385    0.4050   -0.6692 C   0  0  0  0  0  0  0  0  0  0  0  0
   -1.8238    0.0263   -0.5119 N   0  0  0  0  0  0  0  0  0  0  0  0
   -2.3798   -0.3519   -1.8095 C   0  0  0  0  0  0  0  0  0  0  0  0
   -1.9924   -1.1245    0.3586 C   0  0  0  0  0  0  0  0  0  0  0  0
   -2.6319    1.0926    0.0548 C   0  0  0  0  0  0  0  0  0  0  0  0
  1  2  1  0
  2  3  2  0
  2  4  1  0
  4  5  1  0
  5  6  1  1
  5  7  1  0
  7  8  1  0
  8  9  1  0
  8 10  1  0
  8 11  1  0
M  CHG  1   8   1
M  END
>  <zinc_id>  (1) 
ZINC000003831050

>  <smiles>  (1) 
CC(=O)O[C@@H](C)C[N+](C)(C)C

$$$$
