
     RDKit          3D

 24 26  0  0  0  0  0  0  0  0999 V2000
   -4.0400   -0.8859   -2.5694 C   0  0  0  0  0  0  0  0  0  0  0  0
   -3.1986    0.5117   -2.2740 C   0  0  1  0  0  0  0  0  0  0  0  0
   -4.4134    1.2186   -1.4631 C   0  0  0  0  0  0  0  0  0  0  0  0
   -4.5162    0.4634   -0.2279 C   0  0  0  0  0  0  0  0  0  0  0  0
   -5.5168    0.3317    0.7411 C   0  0  0  0  0  0  0  0  0  0  0  0
   -5.3772   -0.4468    1.8686 C   0  0  0  0  0  0  0  0  0  0  0  0
   -4.2179   -1.1199    2.0556 C   0  0  0  0  0  0  0  0  0  0  0  0
   -3.2263   -1.0126    1.1317 C   0  0  0  0  0  0  0  0  0  0  0  0
   -3.3522   -0.2275   -0.0187 C   0  0  0  0  0  0  0  0  0  0  0  0
   -2.4413   -0.0318   -1.0527 N   0  0  0  0  0  0  0  0  0  0  0  0
   -1.1083   -0.2501   -1.1099 N   0  0  0  0  0  0  0  0  0  0  0  0
   -0.0821    0.2510   -0.2815 C   0  0  0  0  0  0  0  0  0  0  0  0
   -0.4177    1.0153    0.6505 O   0  0  0  0  0  0  0  0  0  0  0  0
    1.3309   -0.0681   -0.4443 C   0  0  0  0  0  0  0  0  0  0  0  0
    1.7726   -0.8364   -1.5268 C   0  0  0  0  0  0  0  0  0  0  0  0
    3.1226   -1.1369   -1.6654 C   0  0  0  0  0  0  0  0  0  0  0  0
    4.0513   -0.6876   -0.7450 C   0  0  0  0  0  0  0  0  0  0  0  0
    5.7569   -1.0398   -0.8652 Cl  0  0  0  0  0  0  0  0  0  0  0  0
    3.6381    0.0705    0.3263 C   0  0  0  0  0  0  0  0  0  0  0  0
    4.7161    0.6973    1.5332 S   0  0  0  0  0  0  0  0  0  0  0  0
    5.8561    1.7532    0.7370 N   0  0  0  0  0  0  0  0  0  0  0  0
    5.4276   -0.4389    2.2262 O   0  0  0  0  0  0  0  0  0  0  0  0
    3.9434    1.5224    2.5439 O   0  0  0  0  0  0  0  0  0  0  0  0
    2.2925    0.3473    0.4299 C   0  0  0  0  0  0  0  0  0  0  0  0
  2  1  1  6
  2  3  1  0
  3  4  1  0
  4  5  2  0
  5  6  1  0
  6  7  2  0
  7  8  1  0
  8  9  2  0
  9 10  1  0
 10 11  1  0
 11 12  1  0
 12 13  2  0
 12 14  1  0
 14 15  2  0
 15 16  1  0
 16 17  2  0
 17 18  1  0
 17 19  1  0
 19 20  1  0
 20 21  1  0
 20 22  2  0
 20 23  2  0
 19 24  2  0
 10  2  1  0
 24 14  1  0
  9  4  1  0
M  END
>  <zinc_id>  (1) 
ZINC000000601305

>  <smiles>  (1) 
C[C@H]1Cc2ccccc2N1NC(=O)c1ccc(Cl)c(S(N)(=O)=O)c1

$$$$
