
     RDKit          3D

 19 19  0  0  0  0  0  0  0  0999 V2000
    1.3281    1.2927   -2.2842 C   0  0  0  0  0  0  0  0  0  0  0  0
    1.2518    1.0989   -1.9003 C   0  0  0  0  0  0  0  0  0  0  0  0
    0.5629    0.0761   -1.0785 C   0  0  0  0  0  0  0  0  0  0  0  0
   -0.2626    0.3855    0.0370 C   0  0  1  0  0  0  0  0  0  0  0  0
    0.4538    1.1385    1.2527 C   0  0  2  0  0  0  0  0  0  0  0  0
    0.9025    2.4670    0.4890 C   0  0  0  0  0  0  0  0  0  0  0  0
    1.8300    0.4046    1.1592 C   0  0  0  0  0  0  0  0  0  0  0  0
    2.8752   -0.1625    1.1130 C   0  0  0  0  0  0  0  0  0  0  0  0
    4.1689   -0.8390    1.0436 C   0  0  0  0  0  0  0  0  0  0  0  0
    4.5306   -1.2532   -0.3669 C   0  0  0  0  0  0  0  0  0  0  0  0
   -1.4708    1.2239   -0.2645 C   0  0  0  0  0  0  0  0  0  0  0  0
   -1.5158    2.4561   -0.1489 O   0  0  0  0  0  0  0  0  0  0  0  0
   -2.6642    0.5760   -0.7180 N   0  0  0  0  0  0  0  0  0  0  0  0
   -2.9254   -0.7972   -0.4805 C   0  0  0  0  0  0  0  0  0  0  0  0
   -3.9787   -1.3075   -0.8974 O   0  0  0  0  0  0  0  0  0  0  0  0
   -1.9506   -1.5322    0.2355 N   0  0  0  0  0  0  0  0  0  0  0  0
   -2.1800   -2.9579    0.5047 C   0  0  0  0  0  0  0  0  0  0  0  0
   -0.7894   -0.8825    0.6709 C   0  0  0  0  0  0  0  0  0  0  0  0
   -0.1661   -1.3874    1.6333 O   0  0  0  0  0  0  0  0  0  0  0  0
  1  2  2  0
  2  3  1  0
  4  3  1  6
  4  5  1  0
  5  6  1  6
  5  7  1  0
  7  8  3  0
  8  9  1  0
  9 10  1  0
  4 11  1  0
 11 12  2  0
 11 13  1  0
 13 14  1  0
 14 15  2  0
 14 16  1  0
 16 17  1  0
 16 18  1  0
 18 19  2  0
 18  4  1  0
M  END
>  <zinc_id>  (1) 
ZINC000001530930

>  <smiles>  (1) 
C=CC[C@@]1([C@H](C)C#CCC)C(=O)NC(=O)N(C)C1=O

$$$$
