
     RDKit          3D

 14 13  0  0  0  0  0  0  0  0999 V2000
    3.9001   -0.6822   -0.0699 N   0  0  0  0  0  0  0  0  0  0  0  0
    2.9384   -1.7422    0.0743 C   0  0  0  0  0  0  0  0  0  0  0  0
    1.5460   -1.1901    0.4064 C   0  0  0  0  0  0  0  0  0  0  0  0
    1.1451   -0.2998   -0.7138 C   0  0  0  0  0  0  0  0  0  0  0  0
   -0.1919    0.3345   -0.5684 C   0  0  0  0  0  0  0  0  0  0  0  0
   -0.4001    1.1361   -1.7141 O   0  0  0  0  0  0  0  0  0  0  0  0
   -1.5533   -0.8635   -0.5407 P   0  0  0  0  0  0  0  0  0  0  0  0
   -1.6163   -1.5367   -1.8973 O   0  0  0  0  0  0  0  0  0  0  0  0
   -1.3569   -2.0228    0.6573 O   0  0  0  0  0  0  0  0  0  0  0  0
   -2.9864    0.0071   -0.2733 O   0  0  0  0  0  0  0  0  0  0  0  0
   -0.3358    1.4264    0.8547 P   0  0  0  0  0  0  0  0  0  0  0  0
   -1.8144    1.6465    1.1218 O   0  0  0  0  0  0  0  0  0  0  0  0
    0.4179    0.8445    2.2226 O   0  0  0  0  0  0  0  0  0  0  0  0
    0.3076    2.9423    0.4403 O   0  0  0  0  0  0  0  0  0  0  0  0
  1  2  1  0
  2  3  1  0
  3  4  1  0
  4  5  1  0
  5  6  1  0
  5  7  1  0
  7  8  2  0
  7  9  1  0
  7 10  1  0
  5 11  1  0
 11 12  2  0
 11 13  1  0
 11 14  1  0
M  END
>  <zinc_id>  (1) 
ZINC000003801919

>  <smiles>  (1) 
NCCCC(O)(P(=O)(O)O)P(=O)(O)O

$$$$
