
     RDKit          3D

 18 19  0  0  0  0  0  0  0  0999 V2000
    4.7071   -1.8260    0.4687 Cl  0  0  0  0  0  0  0  0  0  0  0  0
    3.2254   -1.1054    0.0133 C   0  0  0  0  0  0  0  0  0  0  0  0
    2.4310   -1.6382   -0.9785 C   0  0  0  0  0  0  0  0  0  0  0  0
    1.2508   -1.0152   -1.3010 C   0  0  0  0  0  0  0  0  0  0  0  0
    0.8250    0.1221   -0.6751 C   0  0  0  0  0  0  0  0  0  0  0  0
   -0.5413    0.7537   -1.1272 C   0  0  1  0  0  0  0  0  0  0  0  0
   -1.4976   -0.1076   -0.1722 C   0  0  0  0  0  0  0  0  0  0  0  0
   -2.0222   -1.2266   -0.8488 C   0  0  0  0  0  0  0  0  0  0  0  0
   -2.8407   -2.0431   -0.1213 C   0  0  0  0  0  0  0  0  0  0  0  0
   -3.1543   -1.8141    1.1967 C   0  0  0  0  0  0  0  0  0  0  0  0
   -2.6048   -0.7027    1.7881 C   0  0  0  0  0  0  0  0  0  0  0  0
   -1.7619    0.1603    1.0805 C   0  0  0  0  0  0  0  0  0  0  0  0
   -1.0787    1.5797    1.8206 Cl  0  0  0  0  0  0  0  0  0  0  0  0
   -0.4653    2.1326   -0.2538 C   0  0  0  0  0  0  0  0  0  0  0  0
    0.9745    3.0262   -0.7621 Cl  0  0  0  0  0  0  0  0  0  0  0  0
   -1.8290    3.0321   -1.0460 Cl  0  0  0  0  0  0  0  0  0  0  0  0
    1.5989    0.6325    0.2840 C   0  0  0  0  0  0  0  0  0  0  0  0
    2.7833    0.0396    0.6340 C   0  0  0  0  0  0  0  0  0  0  0  0
  1  2  1  0
  2  3  2  0
  3  4  1  0
  4  5  2  0
  5  6  1  0
  6  7  1  0
  7  8  2  0
  8  9  1  0
  9 10  2  0
 10 11  1  0
 11 12  2  0
 12 13  1  0
  6 14  1  1
 14 15  1  0
 14 16  1  0
  5 17  1  0
 17 18  2  0
 18  2  1  0
 12  7  1  0
M  END
>  <zinc_id>  (1) 
ZINC000001530726

>  <smiles>  (1) 
Clc1ccc([C@@H](c2ccccc2Cl)C(Cl)Cl)cc1

$$$$
