
     RDKit          3D

 11 10  0  0  0  0  0  0  0  0999 V2000
   -0.0869    0.8401   -1.9932 C   0  0  0  0  0  0  0  0  0  0  0  0
    0.7303    1.0947   -0.5941 C   0  0  1  0  0  0  0  0  0  0  0  0
   -0.5919    1.0192    0.3372 C   0  0  0  0  0  0  0  0  0  0  0  0
   -1.5636    0.1749   -0.0588 N   0  0  0  0  0  0  0  0  0  0  0  0
   -1.2769   -1.1433   -0.5444 C   0  0  0  0  0  0  0  0  0  0  0  0
   -2.2909   -0.1293    1.1998 C   0  0  0  0  0  0  0  0  0  0  0  0
   -2.5899    0.8412   -0.8831 C   0  0  0  0  0  0  0  0  0  0  0  0
    1.1499   -0.3721   -0.4766 O   0  0  0  0  0  0  0  0  0  0  0  0
    1.9174   -0.6424    0.6461 C   0  0  0  0  0  0  0  0  0  0  0  0
    2.3876   -1.9606    0.9002 N   0  0  0  0  0  0  0  0  0  0  0  0
    2.2149    0.2775    1.4668 O   0  0  0  0  0  0  0  0  0  0  0  0
  2  1  1  6
  2  3  1  0
  3  4  1  0
  4  5  1  0
  4  6  1  0
  4  7  1  0
  2  8  1  0
  8  9  1  0
  9 10  1  0
  9 11  2  0
M  CHG  1   4   1
M  END
>  <zinc_id>  (1) 
ZINC000000000083

>  <smiles>  (1) 
C[C@@H](C[N+](C)(C)C)OC(N)=O

$$$$
