
     RDKit          3D

 20 21  0  0  0  0  0  0  0  0999 V2000
   -0.8981   -1.4396    2.1786 C   0  0  0  0  0  0  0  0  0  0  0  0
   -1.1670   -1.6913    0.9038 C   0  0  0  0  0  0  0  0  0  0  0  0
   -2.1043   -2.7065    0.6502 C   0  0  0  0  0  0  0  0  0  0  0  0
   -2.4621   -3.0655   -0.6492 C   0  0  0  0  0  0  0  0  0  0  0  0
   -1.8897   -2.4163   -1.7187 C   0  0  0  0  0  0  0  0  0  0  0  0
   -0.9739   -1.4245   -1.4554 C   0  0  0  0  0  0  0  0  0  0  0  0
   -0.6496   -1.1003   -0.2158 C   0  0  0  0  0  0  0  0  0  0  0  0
    0.3879    0.0376    0.1812 C   0  0  1  0  0  0  0  0  0  0  0  0
    0.9897    0.2555   -1.1681 O   0  0  0  0  0  0  0  0  0  0  0  0
    2.0036    1.1674   -0.9139 C   0  0  0  0  0  0  0  0  0  0  0  0
    3.0229    0.6541    0.0554 C   0  0  0  0  0  0  0  0  0  0  0  0
    3.6807   -0.5384   -0.3938 N   0  0  0  0  0  0  0  0  0  0  0  0
    4.5407   -0.3600   -1.5248 C   0  0  0  0  0  0  0  0  0  0  0  0
    4.3187   -1.2717    0.6665 C   0  0  0  0  0  0  0  0  0  0  0  0
   -0.6449    1.2167    0.1099 C   0  0  0  0  0  0  0  0  0  0  0  0
   -1.9409    1.1040    0.3952 C   0  0  0  0  0  0  0  0  0  0  0  0
   -2.7908    2.1873    0.3317 C   0  0  0  0  0  0  0  0  0  0  0  0
   -2.3111    3.4202   -0.0322 C   0  0  0  0  0  0  0  0  0  0  0  0
   -0.9749    3.5489   -0.3291 C   0  0  0  0  0  0  0  0  0  0  0  0
   -0.1368    2.4226   -0.2538 C   0  0  0  0  0  0  0  0  0  0  0  0
  1  2  1  0
  2  3  2  0
  3  4  1  0
  4  5  2  0
  5  6  1  0
  6  7  2  0
  7  8  1  0
  8  9  1  6
  9 10  1  0
 10 11  1  0
 11 12  1  0
 12 13  1  0
 12 14  1  0
  8 15  1  0
 15 16  2  0
 16 17  1  0
 17 18  2  0
 18 19  1  0
 19 20  2  0
  7  2  1  0
 20 15  1  0
M  END
>  <zinc_id>  (1) 
ZINC000000155269

>  <smiles>  (1) 
Cc1ccccc1[C@@H](OCCN(C)C)c1ccccc1

$$$$
