
     RDKit          3D

 11 12  0  0  0  0  0  0  0  0999 V2000
   -3.1364   -1.1197    0.2321 N   0  0  0  0  0  0  0  0  0  0  0  0
   -1.8069   -0.5886    0.1117 C   0  0  0  0  0  0  0  0  0  0  0  0
   -0.7204   -1.2979    0.4595 N   0  0  0  0  0  0  0  0  0  0  0  0
    0.5376   -0.8323    0.3599 C   0  0  0  0  0  0  0  0  0  0  0  0
    1.7704   -1.3205    0.6310 N   0  0  0  0  0  0  0  0  0  0  0  0
    2.7156   -0.4415    0.3497 C   0  0  0  0  0  0  0  0  0  0  0  0
    2.0707    0.6638   -0.1238 N   0  0  0  0  0  0  0  0  0  0  0  0
    0.7441    0.4461   -0.1255 C   0  0  0  0  0  0  0  0  0  0  0  0
   -0.3775    1.1618   -0.4781 C   0  0  0  0  0  0  0  0  0  0  0  0
   -0.1816    2.6750   -1.0558 S   0  0  0  0  0  0  0  0  0  0  0  0
   -1.6157    0.6537   -0.3607 N   0  0  0  0  0  0  0  0  0  0  0  0
  1  2  1  0
  2  3  2  0
  3  4  1  0
  4  5  1  0
  5  6  2  0
  6  7  1  0
  7  8  1  0
  8  9  1  0
  9 10  2  0
  9 11  1  0
 11  2  1  0
  8  4  2  0
M  END
>  <zinc_id>  (1) 
ZINC000006382803

>  <smiles>  (1) 
Nc1nc2nc[nH]c2c(=S)[nH]1

$$$$
