
     RDKit          3D

 27 29  0  0  0  0  0  0  0  0999 V2000
   -5.7215    3.5123   -0.9213 C   0  0  0  0  0  0  0  0  0  0  0  0
   -4.4332    2.8775   -0.5934 C   0  0  0  0  0  0  0  0  0  0  0  0
   -4.3273    1.6049   -0.2453 C   0  0  0  0  0  0  0  0  0  0  0  0
   -3.0196    0.9799    0.0829 C   0  0  0  0  0  0  0  0  0  0  0  0
   -3.0159   -0.2849    0.4162 C   0  0  0  0  0  0  0  0  0  0  0  0
   -4.3460   -0.9791    0.4275 C   0  0  0  0  0  0  0  0  0  0  0  0
   -4.4261   -2.1938    0.7272 O   0  0  0  0  0  0  0  0  0  0  0  0
   -5.4971   -0.2866    0.1068 O   0  0  0  0  0  0  0  0  0  0  0  0
   -1.8660   -1.0040    0.7666 N   0  0  0  0  0  0  0  0  0  0  0  0
   -1.1560   -2.1941    0.5119 C   0  0  0  0  0  0  0  0  0  0  0  0
   -1.2098   -3.2976   -0.0188 O   0  0  0  0  0  0  0  0  0  0  0  0
    0.1086   -1.6051    1.3064 C   0  0  1  0  0  0  0  0  0  0  0  0
    0.7394   -0.9277    0.0373 N   0  0  0  0  0  0  0  0  0  0  0  0
    1.8271   -1.6527   -0.3660 C   0  0  0  0  0  0  0  0  0  0  0  0
    2.1690   -2.6609    0.2475 O   0  0  0  0  0  0  0  0  0  0  0  0
    2.6733   -1.1882   -1.6552 C   0  0  2  0  0  0  0  0  0  0  0  0
    3.7585   -2.3337   -1.5090 N   0  0  0  0  0  0  0  0  0  0  0  0
    3.5287   -0.0432   -0.9606 C   0  0  0  0  0  0  0  0  0  0  0  0
    3.5262    1.1175   -1.6426 C   0  0  0  0  0  0  0  0  0  0  0  0
    4.2437    2.2123   -1.1251 C   0  0  0  0  0  0  0  0  0  0  0  0
    4.9309    2.0598    0.0701 C   0  0  0  0  0  0  0  0  0  0  0  0
    5.6516    3.1147    0.6204 O   0  0  0  0  0  0  0  0  0  0  0  0
    4.8931    0.8414    0.7207 C   0  0  0  0  0  0  0  0  0  0  0  0
    4.1775   -0.2046    0.1781 C   0  0  0  0  0  0  0  0  0  0  0  0
   -0.9737   -0.4204    1.8131 C   0  0  1  0  0  0  0  0  0  0  0  0
   -0.4522    1.1841    1.0178 S   0  0  0  0  0  0  0  0  0  0  0  0
   -1.7831    1.7722   -0.0131 C   0  0  0  0  0  0  0  0  0  0  0  0
  1  2  1  0
  2  3  2  0
  3  4  1  0
  4  5  2  0
  5  6  1  0
  6  7  2  0
  6  8  1  0
  5  9  1  0
  9 10  1  0
 10 11  2  0
 10 12  1  0
 12 13  1  6
 13 14  1  0
 14 15  2  0
 14 16  1  0
 16 17  1  1
 16 18  1  0
 18 19  2  0
 19 20  1  0
 20 21  2  0
 21 22  1  0
 21 23  1  0
 23 24  2  0
 12 25  1  0
 25 26  1  6
 26 27  1  0
 27  4  1  0
 25  9  1  0
 24 18  1  0
M  END
>  <zinc_id>  (1) 
ZINC000003776970

>  <smiles>  (1) 
C/C=C/C1=C(C(=O)O)N2C(=O)[C@@H](NC(=O)[C@H](N)c3ccc(O)cc3)[C@H]2SC1

$$$$
