
     RDKit          3D

 15 15  0  0  0  0  0  0  0  0999 V2000
    4.2668   -0.0015   -0.0560 C   0  0  0  0  0  0  0  0  0  0  0  0
    3.8225   -0.3471    1.0057 C   0  0  0  0  0  0  0  0  0  0  0  0
    2.5078   -0.2297    1.5993 C   0  0  0  0  0  0  0  0  0  0  0  0
    1.3833   -0.9934    0.7203 C   0  0  2  0  0  0  0  0  0  0  0  0
    1.6394   -0.0774   -0.6139 C   0  0  0  0  0  0  0  0  0  0  0  0
    0.2586   -0.1863   -1.1386 C   0  0  0  0  0  0  0  0  0  0  0  0
   -0.1555   -0.3650   -2.2981 O   0  0  0  0  0  0  0  0  0  0  0  0
   -0.5757   -0.0406    0.0033 N   0  0  0  0  0  0  0  0  0  0  0  0
   -2.1071    0.0617   -0.1506 C   0  0  1  0  0  0  0  0  0  0  0  0
   -2.4420   -0.9564    1.0828 C   0  0  0  0  0  0  0  0  0  0  0  0
   -1.7456   -2.2067    0.5933 C   0  0  0  0  0  0  0  0  0  0  0  0
   -2.3265    1.4186    0.6241 C   0  0  0  0  0  0  0  0  0  0  0  0
   -1.2004    2.1702    0.9943 N   0  0  0  0  0  0  0  0  0  0  0  0
   -3.5121    1.7632    0.8768 O   0  0  0  0  0  0  0  0  0  0  0  0
    0.1865   -0.0095    1.1923 C   0  0  0  0  0  0  0  0  0  0  0  0
  1  2  1  0
  2  3  1  0
  4  3  1  1
  4  5  1  0
  5  6  1  0
  6  7  2  0
  6  8  1  0
  8  9  1  0
  9 10  1  1
 10 11  1  0
  9 12  1  0
 12 13  1  0
 12 14  2  0
  8 15  1  0
 15  4  1  0
M  END
>  <zinc_id>  (1) 
ZINC000003979899

>  <smiles>  (1) 
CCC[C@@H]1CC(=O)N([C@@H](CC)C(N)=O)C1

$$$$
