
     RDKit          3D

 27 30  0  0  0  0  0  0  0  0999 V2000
    0.6022    2.7421    1.0782 C   0  0  0  0  0  0  0  0  0  0  0  0
    0.5914    1.7073    1.3127 O   0  0  0  0  0  0  0  0  0  0  0  0
    0.3959    0.7223    0.3456 C   0  0  0  0  0  0  0  0  0  0  0  0
    1.5267    0.2675   -0.3109 C   0  0  0  0  0  0  0  0  0  0  0  0
    2.8495    0.6332   -0.0403 N   0  0  0  0  0  0  0  0  0  0  0  0
    3.3370    1.4998    0.9888 C   0  0  0  0  0  0  0  0  0  0  0  0
    4.4815    0.9160    1.7713 C   0  0  0  0  0  0  0  0  0  0  0  0
    5.4854    0.3165    0.9054 N   0  0  0  0  0  0  0  0  0  0  0  0
    4.6796   -0.8729    0.2389 C   0  0  2  0  0  0  0  0  0  0  0  0
    5.9395   -1.2380   -0.7932 C   0  0  0  0  0  0  0  0  0  0  0  0
    3.9601    0.1141   -0.8707 C   0  0  0  0  0  0  0  0  0  0  0  0
    1.3157   -0.7130   -1.2967 C   0  0  0  0  0  0  0  0  0  0  0  0
    2.4446   -1.1520   -1.9424 F   0  0  0  0  0  0  0  0  0  0  0  0
    0.0786   -1.2077   -1.6061 C   0  0  0  0  0  0  0  0  0  0  0  0
   -1.0409   -0.7565   -0.9475 C   0  0  0  0  0  0  0  0  0  0  0  0
   -2.2719   -1.2954   -1.2697 C   0  0  0  0  0  0  0  0  0  0  0  0
   -2.3868   -2.1743   -2.1702 O   0  0  0  0  0  0  0  0  0  0  0  0
   -3.3658   -0.8349   -0.5689 C   0  0  0  0  0  0  0  0  0  0  0  0
   -4.6839   -1.3853   -0.8873 C   0  0  0  0  0  0  0  0  0  0  0  0
   -5.6997   -0.9947   -0.2758 O   0  0  0  0  0  0  0  0  0  0  0  0
   -4.7694   -2.3425   -1.8769 O   0  0  0  0  0  0  0  0  0  0  0  0
   -3.2185    0.1239    0.4108 C   0  0  0  0  0  0  0  0  0  0  0  0
   -1.9680    0.6130    0.6758 N   0  0  0  0  0  0  0  0  0  0  0  0
   -1.9027    1.5666    1.7565 C   0  0  0  0  0  0  0  0  0  0  0  0
   -3.1073    2.2832    2.2275 C   0  0  0  0  0  0  0  0  0  0  0  0
   -2.4048    1.2419    3.1057 C   0  0  0  0  0  0  0  0  0  0  0  0
   -0.8681    0.2197    0.0393 C   0  0  0  0  0  0  0  0  0  0  0  0
  1  2  1  0
  2  3  1  0
  3  4  2  0
  4  5  1  0
  5  6  1  0
  6  7  1  0
  7  8  1  0
  8  9  1  0
  9 10  1  6
  9 11  1  0
  4 12  1  0
 12 13  1  0
 12 14  2  0
 14 15  1  0
 15 16  1  0
 16 17  2  0
 16 18  1  0
 18 19  1  0
 19 20  2  0
 19 21  1  0
 18 22  2  0
 22 23  1  0
 23 24  1  0
 24 25  1  0
 25 26  1  0
 23 27  1  0
 27  3  1  0
 11  5  1  0
 27 15  2  0
 26 24  1  0
M  END
>  <zinc_id>  (1) 
ZINC000003607120

>  <smiles>  (1) 
COc1c(N2CCN[C@H](C)C2)c(F)cc2c(=O)c(C(=O)O)cn(C3CC3)c12

$$$$
