
     RDKit          3D

 22 24  0  0  0  0  0  0  0  0999 V2000
    6.0233   -2.3205   -0.4207 C   0  0  0  0  0  0  0  0  0  0  0  0
    5.6316   -1.0849    0.1494 O   0  0  0  0  0  0  0  0  0  0  0  0
    4.2672   -0.7678    0.1718 C   0  0  0  0  0  0  0  0  0  0  0  0
    3.3246   -1.6312   -0.3458 C   0  0  0  0  0  0  0  0  0  0  0  0
    1.9920   -1.2570   -0.2921 C   0  0  0  0  0  0  0  0  0  0  0  0
    1.5981   -0.0586    0.2594 C   0  0  0  0  0  0  0  0  0  0  0  0
    0.1815    0.2616    0.2783 C   0  0  0  0  0  0  0  0  0  0  0  0
   -0.3073    1.4409    0.8112 C   0  0  0  0  0  0  0  0  0  0  0  0
   -1.6690    1.7199    0.8151 C   0  0  0  0  0  0  0  0  0  0  0  0
   -2.1392    2.7842    1.2931 O   0  0  0  0  0  0  0  0  0  0  0  0
   -2.5245    0.7865    0.2716 C   0  0  0  0  0  0  0  0  0  0  0  0
   -3.8990    0.9582    0.2214 C   0  0  0  0  0  0  0  0  0  0  0  0
   -4.4390    2.1257    0.7435 O   0  0  0  0  0  0  0  0  0  0  0  0
   -4.7366    0.0098   -0.3277 C   0  0  0  0  0  0  0  0  0  0  0  0
   -4.1810   -1.1352   -0.8371 C   0  0  0  0  0  0  0  0  0  0  0  0
   -5.0098   -2.1216   -1.4041 O   0  0  0  0  0  0  0  0  0  0  0  0
   -2.8056   -1.3057   -0.7863 C   0  0  0  0  0  0  0  0  0  0  0  0
   -1.9714   -0.3563   -0.2370 C   0  0  0  0  0  0  0  0  0  0  0  0
   -0.6954   -0.5681   -0.2163 O   0  0  0  0  0  0  0  0  0  0  0  0
    2.5713    0.7597    0.7578 C   0  0  0  0  0  0  0  0  0  0  0  0
    3.9168    0.4393    0.7319 C   0  0  0  0  0  0  0  0  0  0  0  0
    4.8711    1.3210    1.2596 O   0  0  0  0  0  0  0  0  0  0  0  0
  1  2  1  0
  2  3  1  0
  3  4  2  0
  4  5  1  0
  5  6  2  0
  6  7  1  0
  7  8  2  0
  8  9  1  0
  9 10  2  0
  9 11  1  0
 11 12  2  0
 12 13  1  0
 12 14  1  0
 14 15  2  0
 15 16  1  0
 15 17  1  0
 17 18  2  0
 18 19  1  0
  6 20  1  0
 20 21  2  0
 21 22  1  0
 21  3  1  0
 19  7  1  0
 18 11  1  0
M  END
>  <zinc_id>  (1) 
ZINC000005733652

>  <smiles>  (1) 
COc1ccc(-c2cc(=O)c3c(O)cc(O)cc3o2)cc1O

$$$$
