
     RDKit          3D

 19 21  0  0  0  0  0  0  0  0999 V2000
    1.1086    3.0904   -0.3794 N   0  0  0  0  0  0  0  0  0  0  0  0
   -0.0731    2.3077   -0.1738 C   0  0  0  0  0  0  0  0  0  0  0  0
   -1.1953    2.8662   -0.1104 O   0  0  0  0  0  0  0  0  0  0  0  0
    0.0009    0.8988   -0.0390 N   0  0  0  0  0  0  0  0  0  0  0  0
    1.3273    0.3604   -0.1265 C   0  0  0  0  0  0  0  0  0  0  0  0
    2.3022    1.2709    0.1872 C   0  0  0  0  0  0  0  0  0  0  0  0
    3.6559    0.9444    0.1653 C   0  0  0  0  0  0  0  0  0  0  0  0
    3.9885   -0.3461   -0.1882 C   0  0  0  0  0  0  0  0  0  0  0  0
    3.0105   -1.2602   -0.5031 C   0  0  0  0  0  0  0  0  0  0  0  0
    1.6425   -0.9356   -0.4826 C   0  0  0  0  0  0  0  0  0  0  0  0
    0.7927   -2.0831   -0.8619 C   0  0  0  0  0  0  0  0  0  0  0  0
   -0.4964   -2.1604   -0.1555 C   0  0  0  0  0  0  0  0  0  0  0  0
   -0.8348   -3.3006    0.3094 O   0  0  0  0  0  0  0  0  0  0  0  0
   -1.5021   -1.1312    0.1232 C   0  0  0  0  0  0  0  0  0  0  0  0
   -2.7742   -1.6127    0.3481 C   0  0  0  0  0  0  0  0  0  0  0  0
   -3.8359   -0.7752    0.6219 C   0  0  0  0  0  0  0  0  0  0  0  0
   -3.5807    0.5789    0.6641 C   0  0  0  0  0  0  0  0  0  0  0  0
   -2.2937    1.0638    0.4365 C   0  0  0  0  0  0  0  0  0  0  0  0
   -1.2430    0.2235    0.1648 C   0  0  0  0  0  0  0  0  0  0  0  0
  1  2  1  0
  2  3  2  0
  2  4  1  0
  4  5  1  0
  5  6  2  0
  6  7  1  0
  7  8  2  0
  8  9  1  0
  9 10  2  0
 10 11  1  0
 11 12  1  0
 12 13  2  0
 12 14  1  0
 14 15  2  0
 15 16  1  0
 16 17  2  0
 17 18  1  0
 18 19  2  0
 19  4  1  0
 10  5  1  0
 19 14  1  0
M  END
>  <zinc_id>  (1) 
ZINC000000004724

>  <smiles>  (1) 
NC(=O)N1c2ccccc2CC(=O)c2ccccc21

$$$$
