
     RDKit          3D

 23 23  0  0  0  0  0  0  0  0999 V2000
    5.9568   -1.8337    0.3723 C   0  0  0  0  0  0  0  0  0  0  0  0
    5.7999   -0.6526   -0.3911 C   0  0  0  0  0  0  0  0  0  0  0  0
    6.9773    0.1176   -0.7215 C   0  0  0  0  0  0  0  0  0  0  0  0
    4.7448    0.1188    0.2968 C   0  0  0  0  0  0  0  0  0  0  0  0
    4.8178    0.2755    1.5811 O   0  0  0  0  0  0  0  0  0  0  0  0
    3.6533    0.6614   -0.3883 O   0  0  0  0  0  0  0  0  0  0  0  0
    2.5824    1.1631    0.6245 C   0  0  1  0  0  0  0  0  0  0  0  0
    2.9156    2.7876    0.1416 C   0  0  0  0  0  0  0  0  0  0  0  0
    1.5345    1.1601   -0.6097 O   0  0  0  0  0  0  0  0  0  0  0  0
    0.4499    0.2828   -0.3826 C   0  0  0  0  0  0  0  0  0  0  0  0
    0.4104   -0.4941    0.5586 O   0  0  0  0  0  0  0  0  0  0  0  0
   -0.5699    0.3908   -1.2953 N   0  0  0  0  0  0  0  0  0  0  0  0
   -1.7986   -0.0428   -1.6675 C   0  0  0  0  0  0  0  0  0  0  0  0
   -2.8291   -0.0881   -0.5106 C   0  0  0  0  0  0  0  0  0  0  0  0
   -4.1362   -0.0191   -1.2499 C   0  0  0  0  0  0  0  0  0  0  0  0
   -5.2754    0.1183   -0.3541 C   0  0  0  0  0  0  0  0  0  0  0  0
   -5.6339    1.3421   -0.0973 O   0  0  0  0  0  0  0  0  0  0  0  0
   -5.9955   -0.8659    0.2871 O   0  0  0  0  0  0  0  0  0  0  0  0
   -2.8182   -1.6734   -0.2578 C   0  0  0  0  0  0  0  0  0  0  0  0
   -3.1408   -2.0836    1.0876 C   0  0  0  0  0  0  0  0  0  0  0  0
   -2.4017   -1.3615    2.1563 C   0  0  0  0  0  0  0  0  0  0  0  0
   -2.7515    0.0820    2.0177 C   0  0  0  0  0  0  0  0  0  0  0  0
   -2.4920    0.6149    0.6182 C   0  0  0  0  0  0  0  0  0  0  0  0
  1  2  1  0
  2  3  1  0
  2  4  1  0
  4  5  2  0
  4  6  1  0
  6  7  1  0
  7  8  1  6
  7  9  1  0
  9 10  1  0
 10 11  2  0
 10 12  1  0
 12 13  1  0
 13 14  1  0
 14 15  1  0
 15 16  1  0
 16 17  2  0
 16 18  1  0
 14 19  1  0
 19 20  1  0
 20 21  1  0
 21 22  1  0
 22 23  1  0
 23 14  1  0
M  END
>  <zinc_id>  (1) 
ZINC000001554010

>  <smiles>  (1) 
CC(C)C(=O)O[C@@H](C)OC(=O)NCC1(CC(=O)O)CCCCC1

$$$$
