
     RDKit          3D

 19 19  0  0  0  0  0  0  0  0999 V2000
   -3.1135    0.5523    2.0107 C   0  0  0  0  0  0  0  0  0  0  0  0
   -3.6389    0.1669    0.8737 C   0  0  0  0  0  0  0  0  0  0  0  0
   -5.1062    0.0518    0.7516 C   0  0  0  0  0  0  0  0  0  0  0  0
   -5.5421    0.9944   -0.3562 C   0  0  0  0  0  0  0  0  0  0  0  0
   -2.7977   -0.1682   -0.2534 C   0  0  0  0  0  0  0  0  0  0  0  0
   -3.3242   -0.5344   -1.3572 O   0  0  0  0  0  0  0  0  0  0  0  0
   -1.3349   -0.1168   -0.2160 C   0  0  0  0  0  0  0  0  0  0  0  0
   -0.6701    0.1527    0.9526 C   0  0  0  0  0  0  0  0  0  0  0  0
    0.7155    0.1855    1.0022 C   0  0  0  0  0  0  0  0  0  0  0  0
    1.4485   -0.0554   -0.1405 C   0  0  0  0  0  0  0  0  0  0  0  0
    2.8457   -0.0348   -0.1510 O   0  0  0  0  0  0  0  0  0  0  0  0
    3.5761    0.2424    1.0312 C   0  0  0  0  0  0  0  0  0  0  0  0
    5.0281    0.1989    0.7710 C   0  0  0  0  0  0  0  0  0  0  0  0
    5.4388   -0.0754   -0.3916 O   0  0  0  0  0  0  0  0  0  0  0  0
    5.9035    0.4581    1.7865 O   0  0  0  0  0  0  0  0  0  0  0  0
    0.7938   -0.3313   -1.3383 C   0  0  0  0  0  0  0  0  0  0  0  0
    1.7360   -0.6399   -2.8051 Cl  0  0  0  0  0  0  0  0  0  0  0  0
   -0.5632   -0.3498   -1.3261 C   0  0  0  0  0  0  0  0  0  0  0  0
   -1.3953   -0.6970   -2.8310 Cl  0  0  0  0  0  0  0  0  0  0  0  0
  1  2  2  0
  2  3  1  0
  3  4  1  0
  2  5  1  0
  5  6  2  0
  5  7  1  0
  7  8  2  0
  8  9  1  0
  9 10  2  0
 10 11  1  0
 11 12  1  0
 12 13  1  0
 13 14  2  0
 13 15  1  0
 10 16  1  0
 16 17  1  0
 16 18  2  0
 18 19  1  0
 18  7  1  0
M  END
>  <zinc_id>  (1) 
ZINC000000001382

>  <smiles>  (1) 
C=C(CC)C(=O)c1ccc(OCC(=O)O)c(Cl)c1Cl

$$$$
