
     RDKit          3D

 28 32  0  0  0  0  0  0  0  0999 V2000
    8.3568    1.9631    0.1601 O   0  0  0  0  0  0  0  0  0  0  0  0
    7.2621    1.3629    0.0807 C   0  0  0  0  0  0  0  0  0  0  0  0
    6.4933    0.8335    1.2154 C   0  0  0  0  0  0  0  0  0  0  0  0
    5.2759    0.2123    0.5941 C   0  0  0  0  0  0  0  0  0  0  0  0
    4.2059   -0.4352    1.1645 C   0  0  0  0  0  0  0  0  0  0  0  0
    3.1675   -0.9449    0.4234 C   0  0  0  0  0  0  0  0  0  0  0  0
    1.9908   -1.6493    1.0082 C   0  0  0  0  0  0  0  0  0  0  0  0
    0.8121   -0.6653    1.0024 C   0  0  0  0  0  0  0  0  0  0  0  0
   -0.3552   -1.2769    1.5337 N   0  0  0  0  0  0  0  0  0  0  0  0
   -0.9083   -2.3132    0.7030 C   0  0  0  0  0  0  0  0  0  0  0  0
   -1.9359   -1.8049   -0.2692 C   0  0  0  0  0  0  0  0  0  0  0  0
   -2.6844   -0.6829    0.2369 N   0  0  0  0  0  0  0  0  0  0  0  0
   -4.0169   -0.4684   -0.2928 C   0  0  0  0  0  0  0  0  0  0  0  0
   -4.4679   -1.2508   -1.2717 N   0  0  0  0  0  0  0  0  0  0  0  0
   -6.0054   -0.6869   -1.6041 S   0  0  0  0  0  0  0  0  0  0  0  0
   -6.0793    0.5839   -0.4633 C   0  0  0  0  0  0  0  0  0  0  0  0
   -7.0443    1.5460   -0.1034 C   0  0  0  0  0  0  0  0  0  0  0  0
   -6.7908    2.4633    0.8945 C   0  0  0  0  0  0  0  0  0  0  0  0
   -5.5739    2.3844    1.4985 C   0  0  0  0  0  0  0  0  0  0  0  0
   -4.6517    1.4647    1.1543 C   0  0  0  0  0  0  0  0  0  0  0  0
   -4.8623    0.5083    0.1446 C   0  0  0  0  0  0  0  0  0  0  0  0
   -2.1858    0.2254    1.2181 C   0  0  0  0  0  0  0  0  0  0  0  0
   -1.2859   -0.4452    2.1990 C   0  0  0  0  0  0  0  0  0  0  0  0
    3.2195   -0.7888   -0.9628 C   0  0  0  0  0  0  0  0  0  0  0  0
    1.9037   -1.4324   -1.9427 Cl  0  0  0  0  0  0  0  0  0  0  0  0
    4.2939   -0.1399   -1.5238 C   0  0  0  0  0  0  0  0  0  0  0  0
    5.3346    0.3710   -0.7833 C   0  0  0  0  0  0  0  0  0  0  0  0
    6.5317    1.0662   -1.1109 N   0  0  0  0  0  0  0  0  0  0  0  0
  1  2  2  0
  2  3  1  0
  3  4  1  0
  4  5  2  0
  5  6  1  0
  6  7  1  0
  7  8  1  0
  8  9  1  0
  9 10  1  0
 10 11  1  0
 11 12  1  0
 12 13  1  0
 13 14  2  0
 14 15  1  0
 15 16  1  0
 16 17  2  0
 17 18  1  0
 18 19  2  0
 19 20  1  0
 20 21  2  0
 12 22  1  0
 22 23  1  0
  6 24  2  0
 24 25  1  0
 24 26  1  0
 26 27  2  0
 27 28  1  0
 28  2  1  0
 27  4  1  0
 23  9  1  0
 21 13  1  0
 21 16  1  0
M  END
>  <zinc_id>  (1) 
ZINC000000538550

>  <smiles>  (1) 
O=C1Cc2cc(CCN3CCN(c4nsc5ccccc45)CC3)c(Cl)cc2N1

$$$$
