
     RDKit          3D

 27 30  0  0  0  0  0  0  0  0999 V2000
    1.8194   -1.6788    1.2122 C   0  0  0  0  0  0  0  0  0  0  0  0
    1.8138   -0.4013    0.3934 C   0  0  2  0  0  0  0  0  0  0  0  0
    1.0020    0.4804    1.1035 C   0  0  0  0  0  0  0  0  0  0  0  0
    0.0734    1.3213    0.0462 C   0  0  2  0  0  0  0  0  0  0  0  0
   -0.6645    2.0228    1.1492 O   0  0  0  0  0  0  0  0  0  0  0  0
   -1.0217    0.2065   -0.3373 C   0  0  1  0  0  0  0  0  0  0  0  0
   -1.1269    0.5565   -1.7045 F   0  0  0  0  0  0  0  0  0  0  0  0
   -0.3051   -1.2191   -0.2456 C   0  0  1  0  0  0  0  0  0  0  0  0
   -1.0472   -1.8627   -1.5146 C   0  0  0  0  0  0  0  0  0  0  0  0
   -2.5072   -1.7621   -1.4222 C   0  0  0  0  0  0  0  0  0  0  0  0
   -3.0690   -0.5728   -0.7292 C   0  0  0  0  0  0  0  0  0  0  0  0
   -4.1825    0.0209   -0.9593 C   0  0  0  0  0  0  0  0  0  0  0  0
   -4.6799    1.1693   -0.2587 C   0  0  0  0  0  0  0  0  0  0  0  0
   -5.3812    2.0913   -0.7345 O   0  0  0  0  0  0  0  0  0  0  0  0
   -4.2910    1.2211    1.1870 C   0  0  0  0  0  0  0  0  0  0  0  0
   -2.8665    0.9179    1.2687 C   0  0  0  0  0  0  0  0  0  0  0  0
   -2.2231   -0.0008    0.3614 C   0  0  2  0  0  0  0  0  0  0  0  0
   -2.2429   -1.2967    1.2515 C   0  0  0  0  0  0  0  0  0  0  0  0
    1.0886   -0.7155   -1.0284 C   0  0  2  0  0  0  0  0  0  0  0  0
    1.8498   -2.1247   -1.1099 C   0  0  0  0  0  0  0  0  0  0  0  0
    3.2614   -1.6104   -0.8694 C   0  0  0  0  0  0  0  0  0  0  0  0
    3.0909   -0.1902   -0.2652 C   0  0  1  0  0  0  0  0  0  0  0  0
    3.0162    0.6280   -1.4039 O   0  0  0  0  0  0  0  0  0  0  0  0
    4.2018    0.1432    0.6117 C   0  0  0  0  0  0  0  0  0  0  0  0
    4.3636   -0.4993    1.6267 O   0  0  0  0  0  0  0  0  0  0  0  0
    5.1392    1.2341    0.3118 C   0  0  0  0  0  0  0  0  0  0  0  0
    4.8884    1.9211   -0.8648 O   0  0  0  0  0  0  0  0  0  0  0  0
  2  1  1  1
  2  3  1  0
  3  4  1  0
  4  5  1  1
  4  6  1  0
  6  7  1  6
  6  8  1  0
  8  9  1  6
  9 10  1  0
 10 11  1  0
 11 12  2  0
 12 13  1  0
 13 14  2  0
 13 15  1  0
 15 16  1  0
 16 17  1  0
 17 18  1  1
  8 19  1  0
 19 20  1  1
 20 21  1  0
 21 22  1  0
 22 23  1  6
 22 24  1  0
 24 25  2  0
 24 26  1  0
 26 27  1  0
 19  2  1  0
 22  2  1  0
 17  6  1  0
 17 11  1  0
M  END
>  <zinc_id>  (1) 
ZINC000004097304

>  <smiles>  (1) 
C[C@]12C[C@H](O)[C@@]3(F)[C@@H](CCC4=CC(=O)CC[C@@]43C)[C@@H]1CC[C@]2(O)C(=O)CO

$$$$
