
     RDKit          3D

 26 29  0  0  0  0  0  0  0  0999 V2000
    1.9596    1.4565    0.6520 C   0  0  0  0  0  0  0  0  0  0  0  0
    1.8766    0.1303   -0.0382 C   0  0  2  0  0  0  0  0  0  0  0  0
    1.2411    0.1259   -1.3420 C   0  0  0  0  0  0  0  0  0  0  0  0
   -0.2025    0.4102   -1.3157 C   0  0  0  0  0  0  0  0  0  0  0  0
   -0.6801    1.1880   -2.0734 O   0  0  0  0  0  0  0  0  0  0  0  0
   -1.0647   -0.3533   -0.2554 C   0  0  1  0  0  0  0  0  0  0  0  0
   -0.2675    0.3785    1.0755 C   0  0  1  0  0  0  0  0  0  0  0  0
   -1.0882   -0.4389    2.1763 C   0  0  0  0  0  0  0  0  0  0  0  0
   -2.4560    0.1879    2.3046 C   0  0  0  0  0  0  0  0  0  0  0  0
   -3.0937    0.1170    0.9334 C   0  0  0  0  0  0  0  0  0  0  0  0
   -4.2855   -0.4321    0.8823 C   0  0  0  0  0  0  0  0  0  0  0  0
   -4.9482   -0.5314   -0.4048 C   0  0  0  0  0  0  0  0  0  0  0  0
   -6.0996   -1.0611   -0.4560 O   0  0  0  0  0  0  0  0  0  0  0  0
   -4.2489   -0.0178   -1.5483 C   0  0  0  0  0  0  0  0  0  0  0  0
   -3.0764    0.5140   -1.4402 C   0  0  0  0  0  0  0  0  0  0  0  0
   -2.3340    0.6641   -0.2145 C   0  0  2  0  0  0  0  0  0  0  0  0
   -1.8128    2.0429    0.0456 C   0  0  0  0  0  0  0  0  0  0  0  0
    0.9321   -0.7958    0.9622 C   0  0  2  0  0  0  0  0  0  0  0  0
    1.7777   -0.2764    2.2473 C   0  0  0  0  0  0  0  0  0  0  0  0
    3.2150   -0.4537    1.7127 C   0  0  0  0  0  0  0  0  0  0  0  0
    3.0418   -0.7611    0.2306 C   0  0  1  0  0  0  0  0  0  0  0  0
    2.6234   -2.1349    0.2181 O   0  0  0  0  0  0  0  0  0  0  0  0
    4.2679   -0.6053   -0.5004 C   0  0  0  0  0  0  0  0  0  0  0  0
    4.7159   -1.6155   -1.0867 O   0  0  0  0  0  0  0  0  0  0  0  0
    5.1514    0.5399   -0.7170 C   0  0  0  0  0  0  0  0  0  0  0  0
    4.8557    1.7223   -0.1149 O   0  0  0  0  0  0  0  0  0  0  0  0
  2  1  1  1
  2  3  1  0
  3  4  1  0
  4  5  2  0
  6  4  1  6
  6  7  1  0
  7  8  1  1
  8  9  1  0
  9 10  1  0
 10 11  2  0
 11 12  1  0
 12 13  2  0
 12 14  1  0
 14 15  2  0
 15 16  1  0
 16 17  1  1
  7 18  1  0
 18 19  1  1
 19 20  1  0
 20 21  1  0
 21 22  1  1
 21 23  1  0
 23 24  2  0
 23 25  1  0
 25 26  1  0
 18  2  1  0
 21  2  1  0
 16  6  1  0
 16 10  1  0
M  END
>  <zinc_id>  (1) 
ZINC000003875357

>  <smiles>  (1) 
C[C@]12CC(=O)[C@H]3[C@@H](CCC4=CC(=O)C=C[C@@]43C)[C@@H]1CC[C@]2(O)C(=O)CO

$$$$
