
     RDKit          3D

 15 16  0  0  0  0  0  0  0  0999 V2000
   -4.4942    0.4814   -0.5530 N   0  0  0  0  0  0  0  0  0  0  0  0
   -3.3128    0.2452   -0.5608 C   0  0  0  0  0  0  0  0  0  0  0  0
   -2.6398   -0.0686   -1.7278 C   0  0  0  0  0  0  0  0  0  0  0  0
   -1.2708   -0.3409   -1.7287 C   0  0  0  0  0  0  0  0  0  0  0  0
   -0.6219   -0.2917   -0.5730 N   0  0  0  0  0  0  0  0  0  0  0  0
    0.9170   -0.6047   -0.6186 C   0  0  2  0  0  0  0  0  0  0  0  0
    1.0359   -1.3092    0.9100 C   0  0  0  0  0  0  0  0  0  0  0  0
    2.7467   -0.7804    1.1940 S   0  0  0  0  0  0  0  0  0  0  0  0
    2.7611    0.5193   -0.2480 C   0  0  2  0  0  0  0  0  0  0  0  0
    3.2281    1.7339    0.6867 C   0  0  0  0  0  0  0  0  0  0  0  0
    4.6230    1.6558    0.6302 O   0  0  0  0  0  0  0  0  0  0  0  0
    1.3023    0.7685   -0.0602 O   0  0  0  0  0  0  0  0  0  0  0  0
   -1.2265   -0.0016    0.5285 C   0  0  0  0  0  0  0  0  0  0  0  0
   -0.5043    0.0164    1.5762 O   0  0  0  0  0  0  0  0  0  0  0  0
   -2.5438    0.2628    0.5444 N   0  0  0  0  0  0  0  0  0  0  0  0
  1  2  1  0
  2  3  1  0
  3  4  2  0
  4  5  1  0
  6  5  1  1
  6  7  1  0
  7  8  1  0
  8  9  1  0
  9 10  1  1
 10 11  1  0
  9 12  1  0
  5 13  1  0
 13 14  2  0
 13 15  1  0
 15  2  2  0
 12  6  1  0
M  END
>  <zinc_id>  (1) 
ZINC000000012346

>  <smiles>  (1) 
Nc1ccn([C@@H]2CS[C@H](CO)O2)c(=O)n1

$$$$
