
     RDKit          3D

 16 16  0  0  0  0  0  0  0  0999 V2000
    5.0627   -0.0387    0.3351 C   0  0  0  0  0  0  0  0  0  0  0  0
    4.8273    0.2763    0.1918 C   0  0  0  0  0  0  0  0  0  0  0  0
    3.9243    1.5084   -0.0374 C   0  0  0  0  0  0  0  0  0  0  0  0
    2.6883    1.2227    0.6422 N   0  0  0  0  0  0  0  0  0  0  0  0
    2.0729    0.0516   -0.2125 C   0  0  2  0  0  0  0  0  0  0  0  0
    1.9420    0.9868   -1.5768 C   0  0  0  0  0  0  0  0  0  0  0  0
    0.5347    0.1780    0.1676 C   0  0  0  0  0  0  0  0  0  0  0  0
    0.3035    1.0934    0.9715 O   0  0  0  0  0  0  0  0  0  0  0  0
   -0.4281   -0.6282   -0.3325 N   0  0  0  0  0  0  0  0  0  0  0  0
   -1.7999   -0.5374   -0.0112 C   0  0  0  0  0  0  0  0  0  0  0  0
   -2.1334    0.4733    0.9003 C   0  0  0  0  0  0  0  0  0  0  0  0
   -3.4474    0.6149    1.2555 C   0  0  0  0  0  0  0  0  0  0  0  0
   -4.4010   -0.2131    0.7293 C   0  0  0  0  0  0  0  0  0  0  0  0
   -4.0478   -1.2018   -0.1669 C   0  0  0  0  0  0  0  0  0  0  0  0
   -2.7484   -1.3651   -0.5376 C   0  0  0  0  0  0  0  0  0  0  0  0
   -2.3497   -2.4211   -1.5003 C   0  0  0  0  0  0  0  0  0  0  0  0
  1  2  1  0
  2  3  1  0
  3  4  1  0
  4  5  1  0
  5  6  1  6
  5  7  1  0
  7  8  2  0
  7  9  1  0
  9 10  1  0
 10 11  2  0
 11 12  1  0
 12 13  2  0
 13 14  1  0
 14 15  2  0
 15 16  1  0
 15 10  1  0
M  END
>  <zinc_id>  (1) 
ZINC000001530817

>  <smiles>  (1) 
CCCN[C@H](C)C(=O)Nc1ccccc1C

$$$$
