
     RDKit          3D

  5  4  0  0  0  0  0  0  0  0999 V2000
   -1.2896    1.0983    0.3248 O   0  0  0  0  0  0  0  0  0  0  0  0
   -0.4890    0.1793    0.0073 C   0  0  0  0  0  0  0  0  0  0  0  0
   -0.9019   -0.9841   -0.6285 O   0  0  0  0  0  0  0  0  0  0  0  0
    0.9556    0.3977    0.3509 C   0  0  0  0  0  0  0  0  0  0  0  0
    1.7249   -0.6913   -0.0546 O   0  0  0  0  0  0  0  0  0  0  0  0
  1  2  2  0
  2  3  1  0
  2  4  1  0
  4  5  1  0
M  END
>  <zinc_id>  (1) 
ZINC000004658557

>  <smiles>  (1) 
O=C(O)CO

$$$$
