
     RDKit          3D

 20 20  0  0  0  0  0  0  0  0999 V2000
    4.2964   -2.4505    0.7917 C   0  0  0  0  0  0  0  0  0  0  0  0
    3.0214   -1.6962    0.8581 C   0  0  0  0  0  0  0  0  0  0  0  0
    2.3637   -1.5159    1.9097 O   0  0  0  0  0  0  0  0  0  0  0  0
    2.4921   -1.1330   -0.3327 N   0  0  0  0  0  0  0  0  0  0  0  0
    1.2776   -0.3923   -0.3770 C   0  0  0  0  0  0  0  0  0  0  0  0
    0.0785   -1.0345   -0.6049 C   0  0  0  0  0  0  0  0  0  0  0  0
    0.0898   -3.1145   -0.8825 I   0  0  0  0  0  0  0  0  0  0  0  0
   -1.1323   -0.3839   -0.6608 C   0  0  0  0  0  0  0  0  0  0  0  0
   -2.3586   -1.1073   -0.9029 N   0  0  0  0  0  0  0  0  0  0  0  0
   -3.1380   -1.6431    0.1508 C   0  0  0  0  0  0  0  0  0  0  0  0
   -4.4006   -2.3880   -0.0969 C   0  0  0  0  0  0  0  0  0  0  0  0
   -2.6945   -1.4501    1.3262 O   0  0  0  0  0  0  0  0  0  0  0  0
   -1.1489    0.9830   -0.4795 C   0  0  0  0  0  0  0  0  0  0  0  0
   -3.0122    1.9619   -0.5685 I   0  0  0  0  0  0  0  0  0  0  0  0
    0.0231    1.6889   -0.2463 C   0  0  0  0  0  0  0  0  0  0  0  0
   -0.0191    3.1179   -0.0596 C   0  0  0  0  0  0  0  0  0  0  0  0
   -1.1112    3.7158   -0.1086 O   0  0  0  0  0  0  0  0  0  0  0  0
    1.1348    3.8297    0.1723 O   0  0  0  0  0  0  0  0  0  0  0  0
    1.2252    0.9720   -0.2003 C   0  0  0  0  0  0  0  0  0  0  0  0
    3.0130    2.0401    0.1543 I   0  0  0  0  0  0  0  0  0  0  0  0
  1  2  1  0
  2  3  2  0
  2  4  1  0
  4  5  1  0
  5  6  2  0
  6  7  1  0
  6  8  1  0
  8  9  1  0
  9 10  1  0
 10 11  1  0
 10 12  2  0
  8 13  2  0
 13 14  1  0
 13 15  1  0
 15 16  1  0
 16 17  2  0
 16 18  1  0
 15 19  2  0
 19 20  1  0
 19  5  1  0
M  END
>  <zinc_id>  (1) 
ZINC000004097476

>  <smiles>  (1) 
CC(=O)Nc1c(I)c(NC(C)=O)c(I)c(C(=O)O)c1I

$$$$
