
     RDKit          3D

 23 26  0  0  0  0  0  0  0  0999 V2000
   -4.9603    0.9819   -1.4117 C   0  0  0  0  0  0  0  0  0  0  0  0
   -4.4716    0.6063   -0.6146 C   0  0  0  0  0  0  0  0  0  0  0  0
   -3.7260    0.0366    0.5553 C   0  0  2  0  0  0  0  0  0  0  0  0
   -4.4045   -1.0083    1.1452 O   0  0  0  0  0  0  0  0  0  0  0  0
   -3.4968    1.0927    1.6255 C   0  0  0  0  0  0  0  0  0  0  0  0
   -2.0929    1.6084    1.4419 C   0  0  0  0  0  0  0  0  0  0  0  0
   -1.7506    1.1092   -0.0515 C   0  0  1  0  0  0  0  0  0  0  0  0
   -0.1795    0.6813    0.3259 C   0  0  2  0  0  0  0  0  0  0  0  0
    0.4209    2.1250   -0.0830 C   0  0  0  0  0  0  0  0  0  0  0  0
    1.8767    1.9324    0.2566 C   0  0  0  0  0  0  0  0  0  0  0  0
    2.3584    0.5862   -0.1623 C   0  0  0  0  0  0  0  0  0  0  0  0
    3.6652    0.2694    0.1755 C   0  0  0  0  0  0  0  0  0  0  0  0
    4.2206   -0.9446   -0.1610 C   0  0  0  0  0  0  0  0  0  0  0  0
    5.5360   -1.2825    0.1705 O   0  0  0  0  0  0  0  0  0  0  0  0
    6.3742   -0.3810    0.8785 C   0  0  0  0  0  0  0  0  0  0  0  0
    3.4342   -1.8429   -0.8485 C   0  0  0  0  0  0  0  0  0  0  0  0
    2.1107   -1.5228   -1.1908 C   0  0  0  0  0  0  0  0  0  0  0  0
    1.6006   -0.3279   -0.8463 C   0  0  0  0  0  0  0  0  0  0  0  0
    0.1235    0.0545   -1.2217 C   0  0  1  0  0  0  0  0  0  0  0  0
   -0.5193   -1.3870   -0.8746 C   0  0  0  0  0  0  0  0  0  0  0  0
   -2.0390   -1.1287   -0.9515 C   0  0  0  0  0  0  0  0  0  0  0  0
   -2.3421   -0.3729    0.2567 C   0  0  2  0  0  0  0  0  0  0  0  0
   -1.7383   -0.8854    1.5096 C   0  0  0  0  0  0  0  0  0  0  0  0
  1  2  3  0
  2  3  1  0
  3  4  1  1
  3  5  1  0
  5  6  1  0
  7  6  1  1
  7  8  1  0
  8  9  1  6
  9 10  1  0
 10 11  1  0
 11 12  2  0
 12 13  1  0
 13 14  1  0
 14 15  1  0
 13 16  2  0
 16 17  1  0
 17 18  2  0
 18 19  1  0
 19 20  1  1
 20 21  1  0
 21 22  1  0
 22 23  1  1
 22  3  1  0
 22  7  1  0
 19  8  1  0
 18 11  1  0
M  END
>  <zinc_id>  (1) 
ZINC000003815424

>  <smiles>  (1) 
C#C[C@]1(O)CC[C@H]2[C@@H]3CCc4cc(OC)ccc4[C@H]3CC[C@@]21C

$$$$
