
     RDKit          3D

 10  9  0  0  0  0  0  0  0  0999 V2000
   -3.1759    0.8985    0.4314 N   0  0  0  0  0  0  0  0  0  0  0  0
   -2.1876    0.0511    0.0430 C   0  0  0  0  0  0  0  0  0  0  0  0
   -2.4726   -0.6358   -0.9994 O   0  0  0  0  0  0  0  0  0  0  0  0
   -0.9569   -0.1235    0.6510 C   0  0  0  0  0  0  0  0  0  0  0  0
    0.1682   -0.8651    0.4852 C   0  0  0  0  0  0  0  0  0  0  0  0
    0.9836   -0.6783   -0.9330 C   0  0  2  0  0  0  0  0  0  0  0  0
    2.0803   -1.7243   -0.5153 N   0  0  0  0  0  0  0  0  0  0  0  0
    1.7434    0.6352   -0.4315 C   0  0  0  0  0  0  0  0  0  0  0  0
    2.8131    0.6404    0.0827 O   0  0  0  0  0  0  0  0  0  0  0  0
    1.0045    1.8018   -0.6650 O   0  0  0  0  0  0  0  0  0  0  0  0
  1  2  1  0
  2  3  2  0
  2  4  1  0
  4  5  1  0
  5  6  1  0
  6  7  1  1
  6  8  1  0
  8  9  2  0
  8 10  1  0
M  END
>  <zinc_id>  (1) 
ZINC000001532526

>  <smiles>  (1) 
NC(=O)CC[C@H](N)C(=O)O

$$$$
