
     RDKit          2D

 27 33  0  0  0  0  0  0  0  0999 V2000
   -2.4159   -1.6614    0.0000 C   0  0  0  0  0  0  0  0  0  0  0  0
   -1.7882   -0.2990    0.0000 C   0  0  0  0  0  0  0  0  0  0  0  0
   -1.1012   -1.6325    0.0000 C   0  0  0  0  0  0  0  0  0  0  0  0
    0.3971   -1.7042    0.0000 C   0  0  0  0  0  0  0  0  0  0  0  0
    1.2084   -0.4425    0.0000 C   0  0  0  0  0  0  0  0  0  0  0  0
    0.5214    0.8909    0.0000 C   0  0  0  0  0  0  0  0  0  0  0  0
    1.3326    2.1526    0.0000 C   0  0  0  0  0  0  0  0  0  0  0  0
    2.1439    3.4142    0.0000 C   0  0  0  0  0  0  0  0  0  0  0  0
    2.8309    2.0808    0.0000 C   0  0  0  0  0  0  0  0  0  0  0  0
    3.5179    0.7474    0.0000 C   0  0  0  0  0  0  0  0  0  0  0  0
    5.0162    0.6756    0.0000 C   0  0  0  0  0  0  0  0  0  0  0  0
    5.7032   -0.6578    0.0000 C   0  0  0  0  0  0  0  0  0  0  0  0
    7.2015   -0.7296    0.0000 O   0  0  0  0  0  0  0  0  0  0  0  0
    4.8919   -1.9195    0.0000 C   0  0  0  0  0  0  0  0  0  0  0  0
    3.3937   -1.8477    0.0000 C   0  0  0  0  0  0  0  0  0  0  0  0
    2.7067   -0.5143    0.0000 C   0  0  0  0  0  0  0  0  0  0  0  0
    1.8954   -1.7760    0.0000 C   0  0  0  0  0  0  0  0  0  0  0  0
   -0.9769    0.9626    0.0000 C   0  0  0  0  0  0  0  0  0  0  0  0
   -1.9261    2.1241    0.0000 C   0  0  0  0  0  0  0  0  0  0  0  0
   -3.0961    3.0628    0.0000 C   0  0  0  0  0  0  0  0  0  0  0  0
   -3.3241    1.5802    0.0000 C   0  0  0  0  0  0  0  0  0  0  0  0
   -3.2388    0.0826    0.0000 C   0  0  0  0  0  0  0  0  0  0  0  0
   -3.1536   -1.4149    0.0000 C   0  0  0  0  0  0  0  0  0  0  0  0
   -4.5515   -1.9588    0.0000 C   0  0  0  0  0  0  0  0  0  0  0  0
   -5.5007   -0.7973    0.0000 C   0  0  0  0  0  0  0  0  0  0  0  0
   -6.9983   -0.8826    0.0000 O   0  0  0  0  0  0  0  0  0  0  0  0
   -4.6894    0.4643    0.0000 O   0  0  0  0  0  0  0  0  0  0  0  0
  2  1  1  1
  2  3  1  0
  3  4  1  0
  5  4  1  1
  5  6  1  0
  6  7  1  6
  7  8  1  1
  9  8  1  1
  9 10  1  0
 10 11  2  0
 11 12  1  0
 12 13  2  0
 12 14  1  0
 14 15  1  0
 15 16  1  0
 16 17  1  1
  6 18  1  0
 18 19  1  1
 19 20  1  1
 21 20  1  1
 21 22  1  0
 22 23  1  6
 23 24  1  0
 24 25  1  0
 25 26  2  0
 25 27  1  0
 18  2  1  0
 21 19  1  0
 27 22  1  0
 22  2  1  0
 16  5  1  0
  9  7  1  0
 16 10  1  0
M  END
>  <zinc_id>  (1) 
ZINC000003927200

>  <smiles>  (1) 
C[C@]12CC[C@H]3[C@H]([C@@H]1[C@@H]1C[C@@H]1[C@@]21CCC(=O)O1)[C@H]1C[C@H]1C1=CC(=O)CC[C@@]13C

$$$$
