
     RDKit          3D

 27 28  0  0  0  0  0  0  0  0999 V2000
   -6.8111   -0.3665    3.1943 C   0  0  0  0  0  0  0  0  0  0  0  0
   -6.9648   -1.2635    2.1982 C   0  0  0  0  0  0  0  0  0  0  0  0
   -6.2672   -0.8353    0.9397 C   0  0  0  0  0  0  0  0  0  0  0  0
   -4.7843   -0.6982    1.2759 C   0  0  0  0  0  0  0  0  0  0  0  0
   -4.0905   -0.2716    0.0217 C   0  0  0  0  0  0  0  0  0  0  0  0
   -4.6511    0.9526   -0.3650 F   0  0  0  0  0  0  0  0  0  0  0  0
   -4.3909   -1.1725   -0.9809 F   0  0  0  0  0  0  0  0  0  0  0  0
   -2.6246   -0.0591    0.1627 C   0  0  1  0  0  0  0  0  0  0  0  0
   -2.4041    0.9394    1.1166 O   0  0  0  0  0  0  0  0  0  0  0  0
   -1.9634   -1.2950    0.5993 C   0  0  0  0  0  0  0  0  0  0  0  0
   -0.4415   -1.2415    0.5789 C   0  0  0  0  0  0  0  0  0  0  0  0
   -0.2295   -0.8002   -0.9435 C   0  0  1  0  0  0  0  0  0  0  0  0
   -0.7517    0.7991   -0.6325 C   0  0  1  0  0  0  0  0  0  0  0  0
   -0.2292    1.1222   -2.1987 C   0  0  0  0  0  0  0  0  0  0  0  0
    1.1459    0.9507   -1.8618 C   0  0  0  0  0  0  0  0  0  0  0  0
    2.1114    1.5697   -2.1609 O   0  0  0  0  0  0  0  0  0  0  0  0
    1.3999   -0.3347   -0.8898 C   0  0  1  0  0  0  0  0  0  0  0  0
    1.3148    0.5733    0.4646 C   0  0  0  0  0  0  0  0  0  0  0  0
    2.6843    1.0638    0.7911 C   0  0  0  0  0  0  0  0  0  0  0  0
    3.6875    0.0727    1.1641 C   0  0  0  0  0  0  0  0  0  0  0  0
    4.0489   -0.9628    0.2007 C   0  0  0  0  0  0  0  0  0  0  0  0
    4.6823   -0.5379   -1.0832 C   0  0  0  0  0  0  0  0  0  0  0  0
    5.9624    0.1886   -0.8301 C   0  0  0  0  0  0  0  0  0  0  0  0
    6.9603   -0.6341   -0.1083 C   0  0  0  0  0  0  0  0  0  0  0  0
    8.0683   -0.1118    0.1514 O   0  0  0  0  0  0  0  0  0  0  0  0
    6.7101   -1.9243    0.2753 O   0  0  0  0  0  0  0  0  0  0  0  0
   -2.1722    0.4482   -1.0799 O   0  0  0  0  0  0  0  0  0  0  0  0
  1  2  1  0
  2  3  1  0
  3  4  1  0
  4  5  1  0
  5  6  1  0
  5  7  1  0
  5  8  1  0
  8  9  1  1
  8 10  1  0
 10 11  1  0
 12 11  1  1
 12 13  1  0
 13 14  1  6
 14 15  1  0
 15 16  2  0
 15 17  1  0
 17 18  1  1
 18 19  1  0
 19 20  1  0
 20 21  1  0
 21 22  1  0
 22 23  1  0
 23 24  1  0
 24 25  2  0
 24 26  1  0
 13 27  1  0
 27  8  1  0
 17 12  1  0
M  END
>  <zinc_id>  (1) 
ZINC000004654889

>  <smiles>  (1) 
CCCCC(F)(F)[C@@]1(O)CC[C@@H]2[C@H](CCCCCCC(=O)O)C(=O)C[C@H]2O1

$$$$
