
     RDKit          2D

 14 15  0  0  0  0  0  0  0  0999 V2000
   -1.2359    2.7617    0.0000 O   0  0  0  0  0  0  0  0  0  0  0  0
    0.0981    2.0757    0.0000 C   0  0  0  0  0  0  0  0  0  0  0  0
    1.3591    2.8880    0.0000 O   0  0  0  0  0  0  0  0  0  0  0  0
    0.1709    0.5775    0.0000 C   0  0  0  0  0  0  0  0  0  0  0  0
   -0.9983   -0.3621    0.0000 C   0  0  0  0  0  0  0  0  0  0  0  0
   -2.4457    0.0316    0.0000 C   0  0  0  0  0  0  0  0  0  0  0  0
   -3.5104   -1.0251    0.0000 C   0  0  0  0  0  0  0  0  0  0  0  0
   -4.9578   -0.6314    0.0000 O   0  0  0  0  0  0  0  0  0  0  0  0
   -0.4660   -1.7645    0.0000 O   0  0  0  0  0  0  0  0  0  0  0  0
    1.0322   -1.6916    0.0000 C   0  0  0  0  0  0  0  0  0  0  0  0
    2.4796   -2.0852    0.0000 C   0  0  0  0  0  0  0  0  0  0  0  0
    2.8733   -0.6378    0.0000 C   0  0  0  0  0  0  0  0  0  0  0  0
    4.1751    0.1073    0.0000 O   0  0  0  0  0  0  0  0  0  0  0  0
    1.4259   -0.2442    0.0000 N   0  0  0  0  0  0  0  0  0  0  0  0
  1  2  2  0
  2  3  1  0
  4  2  1  6
  4  5  1  0
  5  6  2  0
  6  7  1  0
  7  8  1  0
  5  9  1  0
  9 10  1  0
 10 11  1  1
 11 12  1  0
 12 13  2  0
 12 14  1  0
 14  4  1  0
 14 10  1  0
M  END
>  <zinc_id>  (1) 
ZINC000003830569

>  <smiles>  (1) 
O=C(O)[C@H]1/C(=C/CO)O[C@@H]2CC(=O)N21

$$$$
