
     RDKit          3D

 19 20  0  0  0  0  0  0  0  0999 V2000
    4.1458   -1.3494    1.6578 C   0  0  0  0  0  0  0  0  0  0  0  0
    4.1154   -0.1886    0.9989 O   0  0  0  0  0  0  0  0  0  0  0  0
    3.0585    0.3079    0.2653 C   0  0  0  0  0  0  0  0  0  0  0  0
    3.1573    1.5244   -0.3695 C   0  0  0  0  0  0  0  0  0  0  0  0
    2.1031    2.0377   -1.1037 C   0  0  0  0  0  0  0  0  0  0  0  0
    0.9546    1.2771   -1.1696 C   0  0  0  0  0  0  0  0  0  0  0  0
    0.8158    0.0464   -0.5454 C   0  0  0  0  0  0  0  0  0  0  0  0
   -0.4332   -0.7596   -0.6386 C   0  0  1  0  0  0  0  0  0  0  0  0
   -1.0273   -0.4386   -1.8120 O   0  0  0  0  0  0  0  0  0  0  0  0
   -0.0666   -2.1769   -0.4368 C   0  0  0  0  0  0  0  0  0  0  0  0
   -1.2660   -3.0612   -0.6806 C   0  0  0  0  0  0  0  0  0  0  0  0
   -2.4769   -2.1436   -0.7204 C   0  0  0  0  0  0  0  0  0  0  0  0
   -2.5110   -1.3457    0.4884 C   0  0  0  0  0  0  0  0  0  0  0  0
   -1.3067   -0.2870    0.6209 C   0  0  2  0  0  0  0  0  0  0  0  0
   -2.1000    0.9323   -0.0893 C   0  0  0  0  0  0  0  0  0  0  0  0
   -2.9373    1.4884    0.9634 N   0  0  0  0  0  0  0  0  0  0  0  0
   -2.1798    2.1630    1.9972 C   0  0  0  0  0  0  0  0  0  0  0  0
   -3.9372    2.3874    0.4036 C   0  0  0  0  0  0  0  0  0  0  0  0
    1.8916   -0.4140    0.1703 C   0  0  0  0  0  0  0  0  0  0  0  0
  1  2  1  0
  2  3  1  0
  3  4  2  0
  4  5  1  0
  5  6  2  0
  6  7  1  0
  7  8  1  0
  8  9  1  6
  8 10  1  0
 10 11  1  0
 11 12  1  0
 12 13  1  0
 13 14  1  0
 14 15  1  6
 15 16  1  0
 16 17  1  0
 16 18  1  0
  7 19  2  0
 19  3  1  0
 14  8  1  0
M  END
>  <zinc_id>  (1) 
ZINC000000000853

>  <smiles>  (1) 
COc1cccc([C@@]2(O)CCCC[C@@H]2CN(C)C)c1

$$$$
