
     RDKit          3D

 20 22  0  0  0  0  0  0  0  0999 V2000
   -3.0857   -2.7038   -0.8131 O   0  0  0  0  0  0  0  0  0  0  0  0
   -2.5163   -1.7476   -0.3324 C   0  0  0  0  0  0  0  0  0  0  0  0
   -2.6073   -0.4643   -0.8989 N   0  0  0  0  0  0  0  0  0  0  0  0
   -1.8211    0.6769   -0.5010 C   0  0  0  0  0  0  0  0  0  0  0  0
   -2.4300    1.8910   -0.7180 C   0  0  0  0  0  0  0  0  0  0  0  0
   -1.7268    3.0240   -0.3629 C   0  0  0  0  0  0  0  0  0  0  0  0
   -0.4645    2.9236    0.1866 C   0  0  0  0  0  0  0  0  0  0  0  0
    0.3557    4.4416    0.6088 Cl  0  0  0  0  0  0  0  0  0  0  0  0
    0.1267    1.6998    0.3955 C   0  0  0  0  0  0  0  0  0  0  0  0
   -0.5378    0.5525    0.0568 C   0  0  0  0  0  0  0  0  0  0  0  0
    0.1927   -0.6823    0.3160 C   0  0  0  0  0  0  0  0  0  0  0  0
    1.6424   -0.5359    0.1512 C   0  0  0  0  0  0  0  0  0  0  0  0
    2.1271    0.6512   -0.2265 C   0  0  0  0  0  0  0  0  0  0  0  0
    3.4636    0.9010   -0.4107 C   0  0  0  0  0  0  0  0  0  0  0  0
    4.3817   -0.1064   -0.2031 C   0  0  0  0  0  0  0  0  0  0  0  0
    3.9067   -1.3398    0.1869 C   0  0  0  0  0  0  0  0  0  0  0  0
    2.5501   -1.5448    0.3602 C   0  0  0  0  0  0  0  0  0  0  0  0
   -0.2782   -1.7960    0.6748 N   0  0  0  0  0  0  0  0  0  0  0  0
   -1.7238   -2.1908    0.9476 C   0  0  2  0  0  0  0  0  0  0  0  0
   -1.5555   -3.6497    0.5823 O   0  0  0  0  0  0  0  0  0  0  0  0
  1  2  2  0
  2  3  1  0
  3  4  1  0
  4  5  2  0
  5  6  1  0
  6  7  2  0
  7  8  1  0
  7  9  1  0
  9 10  2  0
 10 11  1  0
 11 12  1  0
 12 13  2  0
 13 14  1  0
 14 15  2  0
 15 16  1  0
 16 17  2  0
 11 18  2  0
 18 19  1  0
 19 20  1  6
 19  2  1  0
 10  4  1  0
 17 12  1  0
M  END
>  <zinc_id>  (1) 
ZINC000000509440

>  <smiles>  (1) 
O=C1Nc2ccc(Cl)cc2C(c2ccccc2)=N[C@@H]1O

$$$$
