
     RDKit          3D

 29 32  0  0  0  0  0  0  0  0999 V2000
   -2.1325   -1.2555   -0.6837 O   0  0  0  0  0  0  0  0  0  0  0  0
   -1.4805    0.1101   -0.6726 C   0  0  2  0  0  0  0  0  0  0  0  0
   -0.7865   -0.1067    0.8163 C   0  0  0  0  0  0  0  0  0  0  0  0
    0.0289   -1.2280    0.5802 N   0  0  0  0  0  0  0  0  0  0  0  0
    1.1330   -0.9629   -0.2702 C   0  0  0  0  0  0  0  0  0  0  0  0
    2.1294   -0.0275    0.6138 C   0  0  2  0  0  0  0  0  0  0  0  0
    1.1887    1.1346    0.7395 O   0  0  0  0  0  0  0  0  0  0  0  0
    2.9350    0.6328   -0.7878 C   0  0  1  0  0  0  0  0  0  0  0  0
    3.8101    1.6694    0.1236 C   0  0  0  0  0  0  0  0  0  0  0  0
    5.1906    1.7369   -0.5286 C   0  0  0  0  0  0  0  0  0  0  0  0
    5.8213    0.4788   -0.0310 C   0  0  0  0  0  0  0  0  0  0  0  0
    7.0102    0.3974    0.6131 C   0  0  0  0  0  0  0  0  0  0  0  0
    7.5214   -0.8089    1.0512 C   0  0  0  0  0  0  0  0  0  0  0  0
    8.7135   -0.8961    1.6986 F   0  0  0  0  0  0  0  0  0  0  0  0
    6.7455   -1.9155    0.7903 C   0  0  0  0  0  0  0  0  0  0  0  0
    5.5420   -1.8539    0.1412 C   0  0  0  0  0  0  0  0  0  0  0  0
    5.0768   -0.6342   -0.2743 C   0  0  0  0  0  0  0  0  0  0  0  0
    3.9158   -0.5159   -0.9099 O   0  0  0  0  0  0  0  0  0  0  0  0
   -2.8366    0.9891   -0.0240 C   0  0  2  0  0  0  0  0  0  0  0  0
   -3.3102   -0.1553    1.0623 C   0  0  0  0  0  0  0  0  0  0  0  0
   -4.6036    0.4265    1.4984 C   0  0  0  0  0  0  0  0  0  0  0  0
   -5.5692    0.3444    0.3887 C   0  0  0  0  0  0  0  0  0  0  0  0
   -6.9177    0.1941    0.5780 C   0  0  0  0  0  0  0  0  0  0  0  0
   -7.8094    0.1204   -0.4577 C   0  0  0  0  0  0  0  0  0  0  0  0
   -9.1590   -0.0279   -0.2577 F   0  0  0  0  0  0  0  0  0  0  0  0
   -7.3118    0.2031   -1.7439 C   0  0  0  0  0  0  0  0  0  0  0  0
   -5.9615    0.3549   -1.9996 C   0  0  0  0  0  0  0  0  0  0  0  0
   -5.1021    0.4232   -0.8954 C   0  0  0  0  0  0  0  0  0  0  0  0
   -3.7815    0.5696   -1.1591 O   0  0  0  0  0  0  0  0  0  0  0  0
  2  1  1  1
  2  3  1  0
  3  4  1  0
  4  5  1  0
  5  6  1  0
  6  7  1  6
  6  8  1  0
  8  9  1  1
  9 10  1  0
 10 11  1  0
 11 12  2  0
 12 13  1  0
 13 14  1  0
 13 15  2  0
 15 16  1  0
 16 17  2  0
 17 18  1  0
  2 19  1  0
 19 20  1  1
 20 21  1  0
 21 22  1  0
 22 23  2  0
 23 24  1  0
 24 25  1  0
 24 26  2  0
 26 27  1  0
 27 28  2  0
 28 29  1  0
 18  8  1  0
 29 19  1  0
 17 11  1  0
 28 22  1  0
M  END
>  <zinc_id>  (1) 
ZINC000001999441

>  <smiles>  (1) 
O[C@@H](CNC[C@@H](O)[C@@H]1CCc2cc(F)ccc2O1)[C@H]1CCc2cc(F)ccc2O1

$$$$
