
     RDKit          3D

 11 11  0  0  0  0  0  0  0  0999 V2000
   -2.2509   -1.5067    0.4037 C   0  0  0  0  0  0  0  0  0  0  0  0
   -2.8494   -0.0779   -0.1887 C   0  0  1  0  0  0  0  0  0  0  0  0
   -2.0994    0.7987    0.8964 N   0  0  0  0  0  0  0  0  0  0  0  0
   -1.6762    0.1052   -1.3327 C   0  0  0  0  0  0  0  0  0  0  0  0
   -0.3794    0.1696   -0.7123 C   0  0  0  0  0  0  0  0  0  0  0  0
    0.2824    1.2823   -0.2733 C   0  0  0  0  0  0  0  0  0  0  0  0
    1.5191    1.2693    0.3099 C   0  0  0  0  0  0  0  0  0  0  0  0
    2.1712    0.0748    0.4829 C   0  0  0  0  0  0  0  0  0  0  0  0
    3.4180    0.0015    1.0641 O   0  0  0  0  0  0  0  0  0  0  0  0
    1.5555   -1.0807    0.0609 C   0  0  0  0  0  0  0  0  0  0  0  0
    0.3091   -1.0362   -0.5233 C   0  0  0  0  0  0  0  0  0  0  0  0
  2  1  1  1
  2  3  1  0
  2  4  1  0
  4  5  1  0
  5  6  2  0
  6  7  1  0
  7  8  2  0
  8  9  1  0
  8 10  1  0
 10 11  2  0
 11  5  1  0
M  END
>  <zinc_id>  (1) 
ZINC000000000373

>  <smiles>  (1) 
C[C@@H](N)Cc1ccc(O)cc1

$$$$
