
     RDKit          3D

 14 14  0  0  0  0  0  0  0  0999 V2000
   -1.3890   -0.8999    0.7437 N   0  0  0  0  0  0  0  0  0  0  0  0
   -1.7233   -0.9709   -0.0184 C   0  0  0  0  0  0  0  0  0  0  0  0
   -1.0042   -0.0183   -1.1247 C   0  0  1  0  0  0  0  0  0  0  0  0
   -1.3154    1.3701   -0.3714 C   0  0  0  0  0  0  0  0  0  0  0  0
   -2.7804    1.4413   -0.3182 C   0  0  0  0  0  0  0  0  0  0  0  0
   -3.4637    0.5570   -0.8688 O   0  0  0  0  0  0  0  0  0  0  0  0
   -3.4605    2.4779    0.3352 O   0  0  0  0  0  0  0  0  0  0  0  0
    0.4546   -0.2357   -0.6136 C   0  0  0  0  0  0  0  0  0  0  0  0
    1.0363    0.5152    0.3335 C   0  0  0  0  0  0  0  0  0  0  0  0
    2.3302    0.2911    0.7666 C   0  0  0  0  0  0  0  0  0  0  0  0
    3.0227   -0.7335    0.1991 C   0  0  0  0  0  0  0  0  0  0  0  0
    4.6691   -1.0089    0.7637 Cl  0  0  0  0  0  0  0  0  0  0  0  0
    2.4684   -1.5185   -0.7647 C   0  0  0  0  0  0  0  0  0  0  0  0
    1.1552   -1.2669   -1.1822 C   0  0  0  0  0  0  0  0  0  0  0  0
  1  2  1  0
  3  2  1  1
  3  4  1  0
  4  5  1  0
  5  6  2  0
  5  7  1  0
  3  8  1  0
  8  9  2  0
  9 10  1  0
 10 11  2  0
 11 12  1  0
 11 13  1  0
 13 14  2  0
 14  8  1  0
M  END
>  <zinc_id>  (1) 
ZINC000000085733

>  <smiles>  (1) 
NC[C@@H](CC(=O)O)c1ccc(Cl)cc1

$$$$
