
     RDKit          3D

 22 22  0  0  0  0  0  0  0  0999 V2000
    2.2981   -0.3995    1.0953 C   0  0  0  0  0  0  0  0  0  0  0  0
    1.0616   -0.1367    0.3118 C   0  0  0  0  0  0  0  0  0  0  0  0
   -0.2184   -0.0152    1.0028 C   0  0  0  0  0  0  0  0  0  0  0  0
   -0.3794   -0.1196    2.2833 C   0  0  0  0  0  0  0  0  0  0  0  0
   -1.6057   -0.0127    3.0409 C   0  0  0  0  0  0  0  0  0  0  0  0
   -1.5443   -0.1545    4.3658 C   0  0  0  0  0  0  0  0  0  0  0  0
   -0.2638   -0.4169    5.0799 C   0  0  0  0  0  0  0  0  0  0  0  0
   -2.7945   -0.0471    5.1608 C   0  0  0  0  0  0  0  0  0  0  0  0
   -3.8779   -0.8686    4.5317 C   0  0  0  0  0  0  0  0  0  0  0  0
   -3.9607   -0.7558    3.0459 C   0  0  0  0  0  0  0  0  0  0  0  0
   -2.9489    0.2443    2.4713 C   0  0  0  0  0  0  0  0  0  0  0  0
   -3.4227    1.6241    2.8794 C   0  0  0  0  0  0  0  0  0  0  0  0
   -2.9246    0.1156    0.9822 C   0  0  0  0  0  0  0  0  0  0  0  0
    1.1940   -0.0255   -0.9936 C   0  0  0  0  0  0  0  0  0  0  0  0
    2.5287   -0.1617   -1.6168 C   0  0  0  0  0  0  0  0  0  0  0  0
    2.7074   -0.0588   -2.9095 C   0  0  0  0  0  0  0  0  0  0  0  0
    1.5945    0.1948   -3.7891 C   0  0  0  0  0  0  0  0  0  0  0  0
    0.2325    0.3435   -3.2503 C   0  0  0  0  0  0  0  0  0  0  0  0
    1.7945    0.2945   -5.0800 C   0  0  0  0  0  0  0  0  0  0  0  0
    3.1003    0.1642   -5.7154 C   0  0  0  0  0  0  0  0  0  0  0  0
    3.1968    0.2741   -6.9526 O   0  0  0  0  0  0  0  0  0  0  0  0
    4.2325   -0.0826   -4.9344 O   0  0  0  0  0  0  0  0  0  0  0  0
  1  2  1  0
  2  3  1  0
  3  4  2  0
  4  5  1  0
  5  6  2  0
  6  7  1  0
  6  8  1  0
  8  9  1  0
  9 10  1  0
 10 11  1  0
 11 12  1  0
 11 13  1  0
  2 14  2  0
 14 15  1  0
 15 16  2  0
 16 17  1  0
 17 18  1  0
 17 19  2  0
 19 20  1  0
 20 21  2  0
 20 22  1  0
 11  5  1  0
M  END
>  <zinc_id>  (1) 
ZINC000005456939

>  <smiles>  (1) 
CC1=C(/C=C/C(C)=C/C=C\C(C)=C/C(=O)O)C(C)(C)CCC1

$$$$
