
     RDKit          3D

 10 10  0  0  0  0  0  0  0  0999 V2000
   -0.4421    2.5087    0.5171 C   0  0  0  0  0  0  0  0  0  0  0  0
   -0.0648    1.2876    1.0657 C   0  0  0  0  0  0  0  0  0  0  0  0
   -0.7104    0.1865    0.2153 C   0  0  1  0  0  0  0  0  0  0  0  0
   -2.1999    0.3033    0.2210 C   0  0  0  0  0  0  0  0  0  0  0  0
   -0.1302    0.3807   -1.1910 C   0  0  0  0  0  0  0  0  0  0  0  0
    1.1974   -0.2703   -1.0394 C   0  0  0  0  0  0  0  0  0  0  0  0
    2.2446    0.0509   -1.6522 O   0  0  0  0  0  0  0  0  0  0  0  0
    1.0431   -1.3085   -0.0795 N   0  0  0  0  0  0  0  0  0  0  0  0
   -0.2109   -1.1438    0.5963 C   0  0  0  0  0  0  0  0  0  0  0  0
   -0.7267   -1.9952    1.3467 O   0  0  0  0  0  0  0  0  0  0  0  0
  1  2  1  0
  2  3  1  0
  3  4  1  6
  3  5  1  0
  5  6  1  0
  6  7  2  0
  6  8  1  0
  8  9  1  0
  9 10  2  0
  9  3  1  0
M  END
>  <zinc_id>  (1) 
ZINC000001530805

>  <smiles>  (1) 
CC[C@@]1(C)CC(=O)NC1=O

$$$$
