
     RDKit          3D

 21 22  0  0  0  0  0  0  0  0999 V2000
   -5.5321    0.3636    1.4224 C   0  0  0  0  0  0  0  0  0  0  0  0
   -5.2891    0.4339    0.9738 C   0  0  0  0  0  0  0  0  0  0  0  0
   -5.1312    1.9195    0.5453 C   0  0  0  0  0  0  0  0  0  0  0  0
   -5.9606   -0.2340   -0.2587 C   0  0  0  0  0  0  0  0  0  0  0  0
   -3.9026   -0.1086    0.9458 N   0  0  0  0  0  0  0  0  0  0  0  0
   -3.4005    0.1833   -0.3772 C   0  0  0  0  0  0  0  0  0  0  0  0
   -1.8982   -0.4522   -0.2787 C   0  0  1  0  0  0  0  0  0  0  0  0
   -1.5473   -0.0667   -1.6910 O   0  0  0  0  0  0  0  0  0  0  0  0
   -1.2607    0.9087    0.3617 C   0  0  0  0  0  0  0  0  0  0  0  0
    0.0870    0.9230    0.0202 O   0  0  0  0  0  0  0  0  0  0  0  0
    0.9983   -0.0578    0.3824 C   0  0  0  0  0  0  0  0  0  0  0  0
    0.5622   -1.1257    1.1296 C   0  0  0  0  0  0  0  0  0  0  0  0
    1.4682   -2.1000    1.4893 C   0  0  0  0  0  0  0  0  0  0  0  0
    2.7824   -2.0140    1.1132 C   0  0  0  0  0  0  0  0  0  0  0  0
    3.2170   -0.9387    0.3620 C   0  0  0  0  0  0  0  0  0  0  0  0
    2.3159    0.0254    0.0072 C   0  0  0  0  0  0  0  0  0  0  0  0
    2.7337    1.1789   -0.7912 C   0  0  0  0  0  0  0  0  0  0  0  0
    4.1948    1.5046   -0.6268 C   0  0  0  0  0  0  0  0  0  0  0  0
    4.9987    0.2536   -0.7834 C   0  0  0  0  0  0  0  0  0  0  0  0
    5.9631    0.2750   -1.5735 O   0  0  0  0  0  0  0  0  0  0  0  0
    4.6010   -0.8719   -0.0157 N   0  0  0  0  0  0  0  0  0  0  0  0
  1  2  1  0
  2  3  1  0
  2  4  1  0
  2  5  1  0
  5  6  1  0
  6  7  1  0
  7  8  1  6
  7  9  1  0
  9 10  1  0
 10 11  1  0
 11 12  2  0
 12 13  1  0
 13 14  2  0
 14 15  1  0
 15 16  2  0
 16 17  1  0
 17 18  1  0
 18 19  1  0
 19 20  2  0
 19 21  1  0
 16 11  1  0
 21 15  1  0
M  END
>  <zinc_id>  (1) 
ZINC000000000128

>  <smiles>  (1) 
CC(C)(C)NC[C@@H](O)COc1cccc2c1CCC(=O)N2

$$$$
