
     RDKit          3D

 49 53  0  0  0  0  0  0  0  0999 V2000
   -2.9366    5.2962   -0.1796 C   0  0  0  0  0  0  0  0  0  0  0  0
   -3.7419    4.3763   -0.9965 C   0  0  0  0  0  0  0  0  0  0  0  0
   -5.1503    4.9034   -1.1367 C   0  0  0  0  0  0  0  0  0  0  0  0
   -3.1250    4.1773   -2.3702 C   0  0  0  0  0  0  0  0  0  0  0  0
   -3.8483    3.0938   -0.3037 N   0  0  0  0  0  0  0  0  0  0  0  0
   -4.6290    2.1205   -0.8675 C   0  0  0  0  0  0  0  0  0  0  0  0
   -5.2279    2.3528   -1.9427 O   0  0  0  0  0  0  0  0  0  0  0  0
   -4.8633    0.6706   -0.2736 C   0  0  2  0  0  0  0  0  0  0  0  0
   -5.9154    1.2161    0.8953 C   0  0  0  0  0  0  0  0  0  0  0  0
   -6.4850   -0.1197    1.5468 C   0  0  2  0  0  0  0  0  0  0  0  0
   -6.0830    0.2533    3.0597 C   0  0  0  0  0  0  0  0  0  0  0  0
   -6.8441   -0.8209    3.8475 C   0  0  0  0  0  0  0  0  0  0  0  0
   -6.5688   -2.0953    3.0808 C   0  0  0  0  0  0  0  0  0  0  0  0
   -5.2478   -2.0959    2.4693 C   0  0  0  0  0  0  0  0  0  0  0  0
   -5.2198   -1.1386    1.1583 C   0  0  2  0  0  0  0  0  0  0  0  0
   -3.9988   -0.2376    1.6990 C   0  0  0  0  0  0  0  0  0  0  0  0
   -3.6637    0.7542    0.7653 N   0  0  0  0  0  0  0  0  0  0  0  0
   -2.4846    0.8458    0.0671 C   0  0  0  0  0  0  0  0  0  0  0  0
   -2.0173   -0.5000   -0.6910 C   0  0  1  0  0  0  0  0  0  0  0  0
   -0.8848    0.3064   -1.4149 O   0  0  0  0  0  0  0  0  0  0  0  0
   -0.8389   -1.0265    0.4837 C   0  0  1  0  0  0  0  0  0  0  0  0
   -1.5560   -2.2214    1.0906 C   0  0  0  0  0  0  0  0  0  0  0  0
   -1.8035   -3.2767    0.1138 C   0  0  0  0  0  0  0  0  0  0  0  0
   -2.8080   -3.3306   -0.8325 C   0  0  0  0  0  0  0  0  0  0  0  0
   -3.0199   -4.4120   -1.6558 C   0  0  0  0  0  0  0  0  0  0  0  0
   -2.2318   -5.5375   -1.5947 C   0  0  0  0  0  0  0  0  0  0  0  0
   -1.2199   -5.5373   -0.6757 C   0  0  0  0  0  0  0  0  0  0  0  0
   -1.0384   -4.4555    0.1203 C   0  0  0  0  0  0  0  0  0  0  0  0
    0.1275   -1.6341   -0.5452 N   0  0  0  0  0  0  0  0  0  0  0  0
    1.3350   -0.9516   -0.4572 C   0  0  0  0  0  0  0  0  0  0  0  0
    1.2552   -0.1215    0.4450 O   0  0  0  0  0  0  0  0  0  0  0  0
    2.6053   -1.1379   -1.3122 C   0  0  2  0  0  0  0  0  0  0  0  0
    3.1556   -2.5527   -1.0451 C   0  0  0  0  0  0  0  0  0  0  0  0
    2.4634   -3.6896   -1.4090 C   0  0  0  0  0  0  0  0  0  0  0  0
    2.7427   -5.0025   -0.9911 N   0  0  0  0  0  0  0  0  0  0  0  0
    1.4501   -3.6369   -2.2034 O   0  0  0  0  0  0  0  0  0  0  0  0
    3.5667   -0.2202   -0.5590 N   0  0  0  0  0  0  0  0  0  0  0  0
    4.7744    0.1645   -1.0893 C   0  0  0  0  0  0  0  0  0  0  0  0
    5.0833   -0.2776   -2.2509 O   0  0  0  0  0  0  0  0  0  0  0  0
    5.6548    1.0432   -0.3480 C   0  0  0  0  0  0  0  0  0  0  0  0
    5.3294    1.4286    0.9190 C   0  0  0  0  0  0  0  0  0  0  0  0
    6.1795    2.2968    1.6075 C   0  0  0  0  0  0  0  0  0  0  0  0
    7.3392    2.7563    1.0035 C   0  0  0  0  0  0  0  0  0  0  0  0
    8.2040    3.6200    1.6508 C   0  0  0  0  0  0  0  0  0  0  0  0
    9.3650    4.0807    1.0410 C   0  0  0  0  0  0  0  0  0  0  0  0
    9.6499    3.6528   -0.2564 C   0  0  0  0  0  0  0  0  0  0  0  0
    8.7749    2.7974   -0.8758 C   0  0  0  0  0  0  0  0  0  0  0  0
    7.6236    2.3371   -0.2762 C   0  0  0  0  0  0  0  0  0  0  0  0
    6.7722    1.4863   -0.9260 N   0  0  0  0  0  0  0  0  0  0  0  0
  1  2  1  0
  2  3  1  0
  2  4  1  0
  2  5  1  0
  5  6  1  0
  6  7  2  0
  8  6  1  6
  8  9  1  0
 10  9  1  6
 10 11  1  0
 11 12  1  0
 12 13  1  0
 13 14  1  0
 15 14  1  1
 15 16  1  0
 16 17  1  0
 17 18  1  0
 18 19  1  0
 19 20  1  6
 19 21  1  0
 21 22  1  1
 22 23  1  0
 23 24  2  0
 24 25  1  0
 25 26  2  0
 26 27  1  0
 27 28  2  0
 21 29  1  0
 29 30  1  0
 30 31  2  0
 30 32  1  0
 32 33  1  1
 33 34  1  0
 34 35  1  0
 34 36  2  0
 32 37  1  0
 37 38  1  0
 38 39  2  0
 38 40  1  0
 40 41  2  0
 41 42  1  0
 42 43  2  0
 43 44  1  0
 44 45  2  0
 45 46  1  0
 46 47  2  0
 47 48  1  0
 48 49  2  0
 17  8  1  0
 28 23  1  0
 49 40  1  0
 15 10  1  0
 48 43  1  0
M  END
>  <zinc_id>  (1) 
ZINC000003914596

>  <smiles>  (1) 
CC(C)(C)NC(=O)[C@@H]1C[C@@H]2CCCC[C@@H]2CN1C[C@@H](O)[C@H](Cc1ccccc1)NC(=O)[C@H](CC(N)=O)NC(=O)c1ccc2ccccc2n1

$$$$
