
     RDKit          3D

 15 17  0  0  0  0  0  0  0  0999 V2000
   -3.2050   -1.2615    0.1361 C   0  0  0  0  0  0  0  0  0  0  0  0
   -2.6586   -1.5916   -1.0795 C   0  0  0  0  0  0  0  0  0  0  0  0
   -1.4829   -0.9434   -1.4827 C   0  0  0  0  0  0  0  0  0  0  0  0
   -0.9036   -0.0049   -0.6729 C   0  0  0  0  0  0  0  0  0  0  0  0
   -1.4168    0.3235    0.4989 C   0  0  0  0  0  0  0  0  0  0  0  0
   -2.5811   -0.3119    0.9086 C   0  0  0  0  0  0  0  0  0  0  0  0
   -0.8823    1.3280    1.4716 C   0  0  0  0  0  0  0  0  0  0  0  0
    0.3965    1.8710    0.9113 C   0  0  0  0  0  0  0  0  0  0  0  0
    0.2934    2.0396   -0.5412 C   0  0  0  0  0  0  0  0  0  0  0  0
    0.4033    0.6071   -1.2980 C   0  0  1  0  0  0  0  0  0  0  0  0
    1.4663   -0.0405   -0.3517 C   0  0  0  0  0  0  0  0  0  0  0  0
    1.3756   -0.8091    0.6071 N   0  0  0  0  0  0  0  0  0  0  0  0
    2.6913   -1.1345    1.1776 C   0  0  0  0  0  0  0  0  0  0  0  0
    3.6888   -0.3704    0.3322 C   0  0  0  0  0  0  0  0  0  0  0  0
    2.8151    0.2988   -0.6174 N   0  0  0  0  0  0  0  0  0  0  0  0
  1  2  2  0
  2  3  1  0
  3  4  2  0
  4  5  1  0
  5  6  2  0
  5  7  1  0
  7  8  1  0
  8  9  1  0
  9 10  1  0
 10 11  1  1
 11 12  2  0
 12 13  1  0
 13 14  1  0
 14 15  1  0
  6  1  1  0
 15 11  1  0
 10  4  1  0
M  END
>  <zinc_id>  (1) 
ZINC000000113426

>  <smiles>  (1) 
c1ccc2c(c1)CCC[C@H]2C1=NCCN1

$$$$
