
     RDKit          2D

 19 20  0  0  0  0  0  0  0  0999 V2000
    0.5402   -3.5773    0.0000 O   0  0  0  0  0  0  0  0  0  0  0  0
    1.8684   -2.8801    0.0000 C   0  0  0  0  0  0  0  0  0  0  0  0
    1.9287   -1.3814    0.0000 C   0  0  0  0  0  0  0  0  0  0  0  0
    0.6609   -0.5797    0.0000 O   0  0  0  0  0  0  0  0  0  0  0  0
    0.7213    0.9191    0.0000 C   0  0  0  0  0  0  0  0  0  0  0  0
   -0.5465    1.7208    0.0000 O   0  0  0  0  0  0  0  0  0  0  0  0
   -1.8747    1.0236    0.0000 C   0  0  0  0  0  0  0  0  0  0  0  0
   -3.1425    1.8253    0.0000 C   0  0  0  0  0  0  0  0  0  0  0  0
   -4.4707    1.1282    0.0000 C   0  0  0  0  0  0  0  0  0  0  0  0
   -4.5310   -0.3706    0.0000 C   0  0  0  0  0  0  0  0  0  0  0  0
   -5.8592   -1.0677    0.0000 O   0  0  0  0  0  0  0  0  0  0  0  0
   -3.2632   -1.1723    0.0000 C   0  0  0  0  0  0  0  0  0  0  0  0
   -1.9351   -0.4752    0.0000 C   0  0  0  0  0  0  0  0  0  0  0  0
    2.0494    1.6162    0.0000 C   0  0  0  0  0  0  0  0  0  0  0  0
    2.1098    3.1150    0.0000 O   0  0  0  0  0  0  0  0  0  0  0  0
    3.3172    0.8146    0.0000 C   0  0  0  0  0  0  0  0  0  0  0  0
    4.6454    1.5117    0.0000 O   0  0  0  0  0  0  0  0  0  0  0  0
    3.2569   -0.6842    0.0000 C   0  0  0  0  0  0  0  0  0  0  0  0
    4.5247   -1.4859    0.0000 O   0  0  0  0  0  0  0  0  0  0  0  0
  1  2  1  0
  3  2  1  1
  3  4  1  0
  4  5  1  0
  5  6  1  1
  6  7  1  0
  7  8  2  0
  8  9  1  0
  9 10  2  0
 10 11  1  0
 10 12  1  0
 12 13  2  0
  5 14  1  0
 14 15  1  6
 14 16  1  0
 16 17  1  1
 16 18  1  0
 18 19  1  6
 18  3  1  0
 13  7  1  0
M  END
>  <zinc_id>  (1) 
ZINC000000518554

>  <smiles>  (1) 
OC[C@H]1O[C@@H](Oc2ccc(O)cc2)[C@H](O)[C@@H](O)[C@@H]1O

$$$$
