
     RDKit          3D

 25 26  0  0  0  0  0  0  0  0999 V2000
   -1.8959    0.8305    1.6674 C   0  0  0  0  0  0  0  0  0  0  0  0
   -0.9946   -0.3684    1.0412 C   0  0  2  0  0  0  0  0  0  0  0  0
    0.2713    0.0062    0.7717 N   0  0  0  0  0  0  0  0  0  0  0  0
    1.4585    0.5008    0.3726 C   0  0  1  0  0  0  0  0  0  0  0  0
    1.6493    0.0945   -1.1682 C   0  0  0  0  0  0  0  0  0  0  0  0
    2.9446    0.5975   -1.6603 C   0  0  0  0  0  0  0  0  0  0  0  0
    4.1633    0.1011   -0.9609 C   0  0  0  0  0  0  0  0  0  0  0  0
    4.7845    0.7222    0.0488 C   0  0  0  0  0  0  0  0  0  0  0  0
    5.9301    0.2253    0.6655 C   0  0  0  0  0  0  0  0  0  0  0  0
    6.4426   -0.9685    0.2052 C   0  0  0  0  0  0  0  0  0  0  0  0
    5.8161   -1.6183   -0.8307 C   0  0  0  0  0  0  0  0  0  0  0  0
    4.6589   -1.0989   -1.4401 C   0  0  0  0  0  0  0  0  0  0  0  0
    1.2257    2.0773    0.1731 C   0  0  0  0  0  0  0  0  0  0  0  0
    0.2996    2.5847    0.8427 O   0  0  0  0  0  0  0  0  0  0  0  0
    2.0211    2.7787   -0.6967 O   0  0  0  0  0  0  0  0  0  0  0  0
   -1.7785   -0.5691   -0.2888 C   0  0  0  0  0  0  0  0  0  0  0  0
   -1.0446   -0.9288   -1.2268 O   0  0  0  0  0  0  0  0  0  0  0  0
   -3.1376   -0.3708   -0.4470 N   0  0  0  0  0  0  0  0  0  0  0  0
   -3.8944   -0.5050   -1.6678 C   0  0  0  0  0  0  0  0  0  0  0  0
   -4.7410    0.7834   -1.6100 C   0  0  0  0  0  0  0  0  0  0  0  0
   -5.4081    0.4622   -0.3293 C   0  0  0  0  0  0  0  0  0  0  0  0
   -4.1594    0.0489    0.6391 C   0  0  1  0  0  0  0  0  0  0  0  0
   -4.7241   -1.4451    0.9053 C   0  0  0  0  0  0  0  0  0  0  0  0
   -5.6798   -1.4310    1.7379 O   0  0  0  0  0  0  0  0  0  0  0  0
   -4.2076   -2.5095    0.2943 O   0  0  0  0  0  0  0  0  0  0  0  0
  2  1  1  1
  2  3  1  0
  3  4  1  0
  4  5  1  6
  5  6  1  0
  6  7  1  0
  7  8  2  0
  8  9  1  0
  9 10  2  0
 10 11  1  0
 11 12  2  0
  4 13  1  0
 13 14  2  0
 13 15  1  0
  2 16  1  0
 16 17  2  0
 16 18  1  0
 18 19  1  0
 19 20  1  0
 20 21  1  0
 21 22  1  0
 22 23  1  1
 23 24  2  0
 23 25  1  0
 12  7  1  0
 22 18  1  0
M  END
>  <zinc_id>  (1) 
ZINC000003812851

>  <smiles>  (1) 
C[C@H](N[C@@H](CCc1ccccc1)C(=O)O)C(=O)N1CCC[C@H]1C(=O)O

$$$$
