
     RDKit          3D

 13 14  0  0  0  0  0  0  0  0999 V2000
   -0.8029    2.4805   -0.0445 C   0  0  0  0  0  0  0  0  0  0  0  0
   -1.3157    1.1164    0.6702 C   0  0  1  0  0  0  0  0  0  0  0  0
   -2.2452    0.6725   -0.5776 C   0  0  0  0  0  0  0  0  0  0  0  0
   -2.9816   -0.4778   -0.2143 N   0  0  0  0  0  0  0  0  0  0  0  0
   -2.2860   -1.5265    0.4356 C   0  0  0  0  0  0  0  0  0  0  0  0
   -1.1577   -1.9688   -0.5069 C   0  0  0  0  0  0  0  0  0  0  0  0
   -0.0320   -1.0148   -0.2254 C   0  0  0  0  0  0  0  0  0  0  0  0
    1.2229   -1.5578   -0.5080 C   0  0  0  0  0  0  0  0  0  0  0  0
    2.3761   -0.8295   -0.3121 C   0  0  0  0  0  0  0  0  0  0  0  0
    2.3426    0.4603    0.1687 C   0  0  0  0  0  0  0  0  0  0  0  0
    3.8348    1.3809    0.4139 Cl  0  0  0  0  0  0  0  0  0  0  0  0
    1.0995    0.9939    0.4471 C   0  0  0  0  0  0  0  0  0  0  0  0
   -0.0547    0.2706    0.2534 C   0  0  0  0  0  0  0  0  0  0  0  0
  2  1  1  6
  2  3  1  0
  3  4  1  0
  4  5  1  0
  5  6  1  0
  6  7  1  0
  7  8  2  0
  8  9  1  0
  9 10  2  0
 10 11  1  0
 10 12  1  0
 12 13  2  0
 13  2  1  0
 13  7  1  0
M  END
>  <zinc_id>  (1) 
ZINC000006733300

>  <smiles>  (1) 
C[C@H]1CNCCc2ccc(Cl)cc21

$$$$
