
     RDKit          3D

 11 11  0  0  0  0  0  0  0  0999 V2000
   -2.2709   -0.9614    1.6915 N   0  0  0  0  0  0  0  0  0  0  0  0
   -1.2766    0.1225    1.1055 C   0  0  1  0  0  0  0  0  0  0  0  0
   -0.1270   -1.0042    0.7656 C   0  0  0  0  0  0  0  0  0  0  0  0
    1.0258   -0.2711    0.1922 C   0  0  0  0  0  0  0  0  0  0  0  0
    2.1948   -0.8381   -0.2752 C   0  0  0  0  0  0  0  0  0  0  0  0
    3.0428    0.1068   -0.7147 N   0  0  0  0  0  0  0  0  0  0  0  0
    2.4271    1.2679   -0.5324 C   0  0  0  0  0  0  0  0  0  0  0  0
    1.2186    1.0452    0.0107 N   0  0  0  0  0  0  0  0  0  0  0  0
   -1.9492    0.1227   -0.3558 C   0  0  0  0  0  0  0  0  0  0  0  0
   -2.8350   -0.6672   -0.6466 O   0  0  0  0  0  0  0  0  0  0  0  0
   -1.4506    1.0768   -1.2408 O   0  0  0  0  0  0  0  0  0  0  0  0
  2  1  1  1
  2  3  1  0
  3  4  1  0
  4  5  2  0
  5  6  1  0
  6  7  1  0
  7  8  2  0
  2  9  1  0
  9 10  2  0
  9 11  1  0
  8  4  1  0
M  END
>  <zinc_id>  (1) 
ZINC000006661227

>  <smiles>  (1) 
N[C@@H](Cc1c[nH]cn1)C(=O)O

$$$$
