
     RDKit          3D

 14 14  0  0  0  0  0  0  0  0999 V2000
   -0.5607   -2.1823    1.1300 N   0  0  0  0  0  0  0  0  0  0  0  0
   -1.1265   -1.2676    2.0230 C   0  0  0  0  0  0  0  0  0  0  0  0
   -1.2261    0.1934    1.2710 C   0  0  2  0  0  0  0  0  0  0  0  0
   -2.1903   -0.3766    0.0654 C   0  0  0  0  0  0  0  0  0  0  0  0
   -2.4168    0.8108   -0.7632 C   0  0  0  0  0  0  0  0  0  0  0  0
   -1.9572    1.9566   -0.5492 O   0  0  0  0  0  0  0  0  0  0  0  0
   -3.2140    0.6630   -1.8937 O   0  0  0  0  0  0  0  0  0  0  0  0
    0.1623    0.0789    0.5226 C   0  0  0  0  0  0  0  0  0  0  0  0
    1.2130    0.5906    1.2342 C   0  0  0  0  0  0  0  0  0  0  0  0
    2.5179    0.5682    0.7127 C   0  0  0  0  0  0  0  0  0  0  0  0
    2.6424    0.0077   -0.5298 C   0  0  0  0  0  0  0  0  0  0  0  0
    4.2280   -0.0872   -1.3081 Cl  0  0  0  0  0  0  0  0  0  0  0  0
    1.5881   -0.5058   -1.2438 C   0  0  0  0  0  0  0  0  0  0  0  0
    0.3399   -0.4498   -0.6711 C   0  0  0  0  0  0  0  0  0  0  0  0
  1  2  1  0
  3  2  1  1
  3  4  1  0
  4  5  1  0
  5  6  2  0
  5  7  1  0
  3  8  1  0
  8  9  2  0
  9 10  1  0
 10 11  2  0
 11 12  1  0
 11 13  1  0
 13 14  2  0
 14  8  1  0
M  END
>  <zinc_id>  (1) 
ZINC000000000061

>  <smiles>  (1) 
NC[C@H](CC(=O)O)c1ccc(Cl)cc1

$$$$
