
     RDKit          3D

 20 19  0  0  0  0  0  0  0  0999 V2000
   -4.0020   -2.6929   -0.5768 N   0  0  0  0  0  0  0  0  0  0  0  0
   -4.5120   -1.4785    0.2559 C   0  0  1  0  0  0  0  0  0  0  0  0
   -3.2435   -0.5318   -0.1571 C   0  0  0  0  0  0  0  0  0  0  0  0
   -2.1808   -1.3461    0.4099 C   0  0  0  0  0  0  0  0  0  0  0  0
   -0.8003   -0.8894    0.2253 C   0  0  0  0  0  0  0  0  0  0  0  0
   -0.7255    0.0431   -0.6184 O   0  0  0  0  0  0  0  0  0  0  0  0
    0.2813   -1.3738    0.8507 N   0  0  0  0  0  0  0  0  0  0  0  0
    1.7252   -1.0416    0.7572 C   0  0  1  0  0  0  0  0  0  0  0  0
    1.8943   -1.1735   -0.8600 C   0  0  0  0  0  0  0  0  0  0  0  0
    3.6135   -0.8369   -1.2683 S   0  0  0  0  0  0  0  0  0  0  0  0
    1.7686    0.4918    0.9206 C   0  0  0  0  0  0  0  0  0  0  0  0
    0.9959    1.3253    1.1330 O   0  0  0  0  0  0  0  0  0  0  0  0
    3.1653    0.8978    0.7469 N   0  0  0  0  0  0  0  0  0  0  0  0
    3.4300    2.2981    0.8618 C   0  0  0  0  0  0  0  0  0  0  0  0
    4.8431    2.6519    0.6852 C   0  0  0  0  0  0  0  0  0  0  0  0
    5.7011    1.7917    0.4835 O   0  0  0  0  0  0  0  0  0  0  0  0
    5.2402    3.9943    0.7580 O   0  0  0  0  0  0  0  0  0  0  0  0
   -5.4826   -0.8965   -0.8309 C   0  0  0  0  0  0  0  0  0  0  0  0
   -5.5346   -1.4194   -1.8966 O   0  0  0  0  0  0  0  0  0  0  0  0
   -6.1771    0.1865   -0.3938 O   0  0  0  0  0  0  0  0  0  0  0  0
  2  1  1  6
  2  3  1  0
  3  4  1  0
  4  5  1  0
  5  6  2  0
  5  7  1  0
  7  8  1  0
  8  9  1  6
  9 10  1  0
  8 11  1  0
 11 12  2  0
 11 13  1  0
 13 14  1  0
 14 15  1  0
 15 16  2  0
 15 17  1  0
  2 18  1  0
 18 19  2  0
 18 20  1  0
M  END
>  <zinc_id>  (1) 
ZINC000003830891

>  <smiles>  (1) 
N[C@@H](CCC(=O)N[C@@H](CS)C(=O)NCC(=O)O)C(=O)O

$$$$
