
     RDKit          3D

 30 31  0  0  0  0  0  0  0  0999 V2000
    7.6327   -1.5067    1.5889 O   0  0  0  0  0  0  0  0  0  0  0  0
    7.6134   -0.2937    1.7730 C   0  0  0  0  0  0  0  0  0  0  0  0
    6.5587    0.3591    0.9089 C   0  0  0  0  0  0  0  0  0  0  0  0
    5.7885   -0.4074    0.0717 C   0  0  0  0  0  0  0  0  0  0  0  0
    4.8300    0.1269   -0.7203 C   0  0  0  0  0  0  0  0  0  0  0  0
    3.9503   -0.7256   -1.6852 C   0  0  1  0  0  0  0  0  0  0  0  0
    3.7480   -1.8951   -0.7118 O   0  0  0  0  0  0  0  0  0  0  0  0
    2.5054   -0.0549   -1.1969 C   0  0  0  0  0  0  0  0  0  0  0  0
    1.5332   -1.0782   -1.5213 N   0  0  0  0  0  0  0  0  0  0  0  0
    1.3424   -1.2740   -2.8973 C   0  0  0  0  0  0  0  0  0  0  0  0
    0.6875   -0.2561   -3.7109 C   0  0  0  0  0  0  0  0  0  0  0  0
   -0.6360    0.1867   -3.5914 C   0  0  0  0  0  0  0  0  0  0  0  0
   -1.1900    0.7691   -2.4168 C   0  0  0  0  0  0  0  0  0  0  0  0
   -1.3354    0.0886   -1.1447 C   0  0  0  0  0  0  0  0  0  0  0  0
   -2.2106   -1.1490   -1.1472 C   0  0  0  0  0  0  0  0  0  0  0  0
   -2.1885   -1.6238    0.1616 O   0  0  0  0  0  0  0  0  0  0  0  0
   -2.6954   -0.6363    0.9952 C   0  0  0  0  0  0  0  0  0  0  0  0
   -4.1101   -0.3364    0.5585 C   0  0  0  0  0  0  0  0  0  0  0  0
   -4.9503   -1.6143    0.6599 C   0  0  0  0  0  0  0  0  0  0  0  0
   -6.3425   -1.2226    0.2102 C   0  0  0  0  0  0  0  0  0  0  0  0
   -6.8699   -0.1617    1.1121 C   0  0  0  0  0  0  0  0  0  0  0  0
   -7.5927   -0.5148    2.2438 C   0  0  0  0  0  0  0  0  0  0  0  0
   -8.0594    0.5026    3.0475 C   0  0  0  0  0  0  0  0  0  0  0  0
   -7.8180    1.8342    2.7413 C   0  0  0  0  0  0  0  0  0  0  0  0
   -7.1013    2.1717    1.6192 C   0  0  0  0  0  0  0  0  0  0  0  0
   -6.6318    1.1531    0.8103 C   0  0  0  0  0  0  0  0  0  0  0  0
    4.6211    1.4735   -0.6872 C   0  0  0  0  0  0  0  0  0  0  0  0
    5.3971    2.2928    0.1630 C   0  0  0  0  0  0  0  0  0  0  0  0
    6.3571    1.7126    0.9494 C   0  0  0  0  0  0  0  0  0  0  0  0
    7.1664    2.4426    1.8163 O   0  0  0  0  0  0  0  0  0  0  0  0
  1  2  1  0
  2  3  1  0
  3  4  2  0
  4  5  1  0
  5  6  1  0
  6  7  1  1
  6  8  1  0
  8  9  1  0
  9 10  1  0
 10 11  1  0
 11 12  1  0
 12 13  1  0
 13 14  1  0
 14 15  1  0
 15 16  1  0
 16 17  1  0
 17 18  1  0
 18 19  1  0
 19 20  1  0
 20 21  1  0
 21 22  2  0
 22 23  1  0
 23 24  2  0
 24 25  1  0
 25 26  2  0
  5 27  2  0
 27 28  1  0
 28 29  2  0
 29 30  1  0
 29  3  1  0
 26 21  1  0
M  END
>  <zinc_id>  (1) 
ZINC000003799072

>  <smiles>  (1) 
OCc1cc([C@@H](O)CNCCCCCCOCCCCc2ccccc2)ccc1O

$$$$
