
     RDKit          3D

 26 29  0  0  0  0  0  0  0  0999 V2000
    1.7197    1.9794    3.2286 C   0  0  0  0  0  0  0  0  0  0  0  0
    1.0520    2.3482    1.7557 C   0  0  2  0  0  0  0  0  0  0  0  0
   -0.4197    1.7932    2.1658 C   0  0  0  0  0  0  0  0  0  0  0  0
   -1.0579    1.5712    0.8832 O   0  0  0  0  0  0  0  0  0  0  0  0
   -0.5121    0.5043    0.1421 C   0  0  0  0  0  0  0  0  0  0  0  0
   -1.3429   -0.2728   -0.6217 C   0  0  0  0  0  0  0  0  0  0  0  0
   -2.7410   -0.0484   -0.7132 N   0  0  0  0  0  0  0  0  0  0  0  0
   -3.3638    0.7990   -1.6886 C   0  0  0  0  0  0  0  0  0  0  0  0
   -4.6915    0.2613   -2.1320 C   0  0  0  0  0  0  0  0  0  0  0  0
   -5.5145   -0.2049   -1.0411 N   0  0  0  0  0  0  0  0  0  0  0  0
   -5.5831    0.8615   -0.0315 C   0  0  0  0  0  0  0  0  0  0  0  0
   -4.8209   -1.3126   -0.3767 C   0  0  0  0  0  0  0  0  0  0  0  0
   -3.5836   -0.7254    0.2472 C   0  0  0  0  0  0  0  0  0  0  0  0
   -0.7672   -1.3256   -1.3324 C   0  0  0  0  0  0  0  0  0  0  0  0
   -1.5726   -2.1042   -2.0930 F   0  0  0  0  0  0  0  0  0  0  0  0
    0.5934   -1.5142   -1.2196 C   0  0  0  0  0  0  0  0  0  0  0  0
    1.3942   -0.7152   -0.4464 C   0  0  0  0  0  0  0  0  0  0  0  0
    2.7513   -0.8971   -0.3159 C   0  0  0  0  0  0  0  0  0  0  0  0
    3.2820   -1.8459   -0.9494 O   0  0  0  0  0  0  0  0  0  0  0  0
    3.5534   -0.0935    0.4717 C   0  0  0  0  0  0  0  0  0  0  0  0
    4.9809   -0.3665    0.5469 C   0  0  0  0  0  0  0  0  0  0  0  0
    5.7717    0.3124    1.2354 O   0  0  0  0  0  0  0  0  0  0  0  0
    5.4973   -1.4226   -0.1717 O   0  0  0  0  0  0  0  0  0  0  0  0
    2.9339    0.9215    1.1373 C   0  0  0  0  0  0  0  0  0  0  0  0
    1.5987    1.1276    1.0292 N   0  0  0  0  0  0  0  0  0  0  0  0
    0.8421    0.3694    0.2900 C   0  0  0  0  0  0  0  0  0  0  0  0
  2  1  1  1
  2  3  1  0
  3  4  1  0
  4  5  1  0
  5  6  1  0
  6  7  1  0
  7  8  1  0
  8  9  1  0
  9 10  1  0
 10 11  1  0
 10 12  1  0
 12 13  1  0
  6 14  2  0
 14 15  1  0
 14 16  1  0
 16 17  2  0
 17 18  1  0
 18 19  2  0
 18 20  1  0
 20 21  1  0
 21 22  2  0
 21 23  1  0
 20 24  2  0
 24 25  1  0
 25 26  1  0
 25  2  1  0
 26  5  2  0
 13  7  1  0
 26 17  1  0
M  END
>  <zinc_id>  (1) 
ZINC000000537891

>  <smiles>  (1) 
C[C@@H]1COc2c(N3CCN(C)CC3)c(F)cc3c(=O)c(C(=O)O)cn1c23

$$$$
