
     RDKit          3D

 23 26  0  0  0  0  0  0  0  0999 V2000
   -4.2604    0.5354    2.9194 C   0  0  0  0  0  0  0  0  0  0  0  0
   -3.6033    0.2991    1.8798 N   0  0  0  0  0  0  0  0  0  0  0  0
   -2.2938    0.2504    1.7481 N   0  0  0  0  0  0  0  0  0  0  0  0
   -1.8759   -0.0263    0.5028 C   0  0  0  0  0  0  0  0  0  0  0  0
   -0.5115   -0.1652   -0.0170 C   0  0  0  0  0  0  0  0  0  0  0  0
   -0.3072   -0.4208   -1.2257 O   0  0  0  0  0  0  0  0  0  0  0  0
    0.6577   -0.0327    0.7502 N   0  0  0  0  0  0  0  0  0  0  0  0
    1.9740   -0.1491    0.3269 C   0  0  1  0  0  0  0  0  0  0  0  0
    2.1600   -0.1816   -1.0794 C   0  0  0  0  0  0  0  0  0  0  0  0
    3.7596   -0.3761   -1.4148 C   0  0  1  0  0  0  0  0  0  0  0  0
    4.2078    1.1963   -1.4682 C   0  0  0  0  0  0  0  0  0  0  0  0
    5.5165    1.1234   -0.7786 C   0  0  0  0  0  0  0  0  0  0  0  0
    5.2059    1.3229    0.6219 C   0  0  0  0  0  0  0  0  0  0  0  0
    4.1671    0.1334    1.1245 C   0  0  1  0  0  0  0  0  0  0  0  0
    2.7989    0.9557    0.7943 C   0  0  0  0  0  0  0  0  0  0  0  0
    4.2984   -0.8250   -0.0551 N   0  0  0  0  0  0  0  0  0  0  0  0
    3.9433   -2.1295    0.2367 C   0  0  0  0  0  0  0  0  0  0  0  0
   -3.0362   -0.1675   -0.2279 C   0  0  0  0  0  0  0  0  0  0  0  0
   -3.2280   -0.4537   -1.5639 C   0  0  0  0  0  0  0  0  0  0  0  0
   -4.5130   -0.5405   -2.0590 C   0  0  0  0  0  0  0  0  0  0  0  0
   -5.5536   -0.3368   -1.1922 C   0  0  0  0  0  0  0  0  0  0  0  0
   -5.3957   -0.0512    0.1398 C   0  0  0  0  0  0  0  0  0  0  0  0
   -4.1107    0.0393    0.6492 C   0  0  0  0  0  0  0  0  0  0  0  0
  1  2  1  0
  2  3  1  0
  3  4  2  0
  4  5  1  0
  5  6  2  0
  5  7  1  0
  8  7  1  6
  8  9  1  0
 10  9  1  1
 10 11  1  0
 11 12  1  0
 12 13  1  0
 14 13  1  6
 14 15  1  0
 14 16  1  0
 16 17  1  0
  4 18  1  0
 18 19  2  0
 19 20  1  0
 20 21  2  0
 21 22  1  0
 22 23  2  0
 23  2  1  0
 15  8  1  0
 23 18  1  0
 16 10  1  0
M  END
>  <zinc_id>  (1) 
ZINC000000000347

>  <smiles>  (1) 
CN1[C@H]2CCC[C@@H]1CC(NC(=O)c1nn(C)c3ccccc13)C2

$$$$
