
     RDKit          3D

 29 31  0  0  0  0  0  0  0  0999 V2000
    6.8754    2.1391    1.2365 O   0  0  0  0  0  0  0  0  0  0  0  0
    5.5252    1.9438    0.6570 S   0  0  0  0  0  0  0  0  0  0  0  0
    4.4305    2.1965    1.6587 O   0  0  0  0  0  0  0  0  0  0  0  0
    5.2475    2.9289   -0.6787 O   0  0  0  0  0  0  0  0  0  0  0  0
    5.3293    0.3246    0.1201 O   0  0  0  0  0  0  0  0  0  0  0  0
    4.0053   -0.0446   -0.1839 C   0  0  0  0  0  0  0  0  0  0  0  0
    3.1815   -0.5817    0.7820 C   0  0  0  0  0  0  0  0  0  0  0  0
    1.8865   -0.9446    0.4914 C   0  0  0  0  0  0  0  0  0  0  0  0
    1.3660   -0.7797   -0.7935 C   0  0  0  0  0  0  0  0  0  0  0  0
   -0.0228   -1.1942   -1.0104 C   0  0  0  0  0  0  0  0  0  0  0  0
   -1.0134   -0.1400   -0.7744 C   0  0  0  0  0  0  0  0  0  0  0  0
   -1.5174   -0.0384    0.5226 C   0  0  0  0  0  0  0  0  0  0  0  0
   -2.4464    0.8959    0.8908 C   0  0  0  0  0  0  0  0  0  0  0  0
   -2.9266    1.7997   -0.0582 C   0  0  0  0  0  0  0  0  0  0  0  0
   -3.8691    2.7444    0.3238 O   0  0  0  0  0  0  0  0  0  0  0  0
   -5.5452    2.3727    0.2069 S   0  0  0  0  0  0  0  0  0  0  0  0
   -6.3532    3.3494    0.9877 O   0  0  0  0  0  0  0  0  0  0  0  0
   -5.7554    1.0053    0.8326 O   0  0  0  0  0  0  0  0  0  0  0  0
   -5.9977    2.3822   -1.3946 O   0  0  0  0  0  0  0  0  0  0  0  0
   -2.4269    1.6962   -1.3365 C   0  0  0  0  0  0  0  0  0  0  0  0
   -1.4824    0.7401   -1.6942 C   0  0  0  0  0  0  0  0  0  0  0  0
   -0.3670   -2.5095   -0.5184 C   0  0  0  0  0  0  0  0  0  0  0  0
   -0.2361   -3.6259   -1.3120 C   0  0  0  0  0  0  0  0  0  0  0  0
   -0.5639   -4.8959   -0.8501 C   0  0  0  0  0  0  0  0  0  0  0  0
   -1.0346   -5.0484    0.4400 C   0  0  0  0  0  0  0  0  0  0  0  0
   -1.1531   -3.9095    1.2064 C   0  0  0  0  0  0  0  0  0  0  0  0
   -0.8255   -2.6769    0.7312 N   0  0  0  0  0  0  0  0  0  0  0  0
    2.1968   -0.2481   -1.7302 C   0  0  0  0  0  0  0  0  0  0  0  0
    3.4928    0.1186   -1.4525 C   0  0  0  0  0  0  0  0  0  0  0  0
  1  2  2  0
  2  3  2  0
  2  4  1  0
  2  5  1  0
  5  6  1  0
  6  7  2  0
  7  8  1  0
  8  9  2  0
  9 10  1  0
 10 11  1  0
 11 12  2  0
 12 13  1  0
 13 14  2  0
 14 15  1  0
 15 16  1  0
 16 17  2  0
 16 18  2  0
 16 19  1  0
 14 20  1  0
 20 21  2  0
 10 22  1  0
 22 23  2  0
 23 24  1  0
 24 25  2  0
 25 26  1  0
 26 27  2  0
  9 28  1  0
 28 29  2  0
 29  6  1  0
 21 11  1  0
 27 22  1  0
M  END
>  <zinc_id>  (1) 
ZINC000003873921

>  <smiles>  (1) 
O=S(=O)(O)Oc1ccc(C(c2ccc(OS(=O)(=O)O)cc2)c2ccccn2)cc1

$$$$
