
     RDKit          3D

 12 12  0  0  0  0  0  0  0  0999 V2000
   -0.7479    2.5757    0.3364 C   0  0  0  0  0  0  0  0  0  0  0  0
   -1.1884    1.5207   -0.3985 C   0  0  0  0  0  0  0  0  0  0  0  0
   -1.1116    0.2900    0.6818 C   0  0  1  0  0  0  0  0  0  0  0  0
   -1.6399   -0.8131   -0.3098 C   0  0  0  0  0  0  0  0  0  0  0  0
   -0.9810   -1.7134   -1.0413 N   0  0  0  0  0  0  0  0  0  0  0  0
   -2.8787   -0.7933   -0.3811 O   0  0  0  0  0  0  0  0  0  0  0  0
    0.4164    0.0281    0.5525 N   0  0  0  0  0  0  0  0  0  0  0  0
    1.1185   -0.3794    1.7477 C   0  0  0  0  0  0  0  0  0  0  0  0
    2.3584   -1.0286    1.1762 C   0  0  0  0  0  0  0  0  0  0  0  0
    2.5727   -0.3722   -0.1641 C   0  0  0  0  0  0  0  0  0  0  0  0
    1.2229    0.1214   -0.5305 C   0  0  0  0  0  0  0  0  0  0  0  0
    0.8587    0.5640   -1.6692 O   0  0  0  0  0  0  0  0  0  0  0  0
  1  2  1  0
  3  2  1  6
  3  4  1  0
  4  5  1  0
  4  6  2  0
  3  7  1  0
  7  8  1  0
  8  9  1  0
  9 10  1  0
 10 11  1  0
 11 12  2  0
 11  7  1  0
M  END
>  <zinc_id>  (1) 
ZINC000001547851

>  <smiles>  (1) 
CC[C@@H](C(N)=O)N1CCCC1=O

$$$$
