
     RDKit          2D

 29 32  0  0  0  0  0  0  0  0999 V2000
   -5.0303   -2.1373    0.0000 C   0  0  0  0  0  0  0  0  0  0  0  0
   -3.8594   -1.1998    0.0000 C   0  0  0  0  0  0  0  0  0  0  0  0
   -4.0858    0.2830    0.0000 C   0  0  0  0  0  0  0  0  0  0  0  0
   -5.4831    0.8284    0.0000 C   0  0  0  0  0  0  0  0  0  0  0  0
   -5.7095    2.3112    0.0000 C   0  0  0  0  0  0  0  0  0  0  0  0
   -4.5386    3.2487    0.0000 O   0  0  0  0  0  0  0  0  0  0  0  0
   -7.1069    2.8565    0.0000 O   0  0  0  0  0  0  0  0  0  0  0  0
   -2.4620   -1.7451    0.0000 C   0  0  0  0  0  0  0  0  0  0  0  0
   -2.0818   -3.1961    0.0000 C   0  0  0  0  0  0  0  0  0  0  0  0
   -0.5844   -3.2830    0.0000 C   0  0  0  0  0  0  0  0  0  0  0  0
   -0.0390   -1.8856    0.0000 C   0  0  0  0  0  0  0  0  0  0  0  0
    1.3643   -1.3559    0.0000 C   0  0  0  0  0  0  0  0  0  0  0  0
    2.5248   -2.3063    0.0000 C   0  0  0  0  0  0  0  0  0  0  0  0
    2.2819   -3.7865    0.0000 O   0  0  0  0  0  0  0  0  0  0  0  0
    3.9281   -1.7765    0.0000 C   0  0  0  0  0  0  0  0  0  0  0  0
    4.1710   -0.2963    0.0000 C   0  0  0  0  0  0  0  0  0  0  0  0
    5.5743    0.2334    0.0000 C   0  0  0  0  0  0  0  0  0  0  0  0
    5.8172    1.7136    0.0000 C   0  0  0  0  0  0  0  0  0  0  0  0
    7.2205    2.2434    0.0000 O   0  0  0  0  0  0  0  0  0  0  0  0
    4.6568    2.6641    0.0000 C   0  0  0  0  0  0  0  0  0  0  0  0
    3.2534    2.1343    0.0000 C   0  0  0  0  0  0  0  0  0  0  0  0
    3.0105    0.6541    0.0000 C   0  0  0  0  0  0  0  0  0  0  0  0
    1.8501    1.6046    0.0000 C   0  0  0  0  0  0  0  0  0  0  0  0
    1.6072    0.1244    0.0000 C   0  0  0  0  0  0  0  0  0  0  0  0
    0.4467    1.0748    0.0000 C   0  0  0  0  0  0  0  0  0  0  0  0
   -0.9566    0.5450    0.0000 C   0  0  0  0  0  0  0  0  0  0  0  0
   -2.1170    1.4955    0.0000 O   0  0  0  0  0  0  0  0  0  0  0  0
   -1.1995   -0.9352    0.0000 C   0  0  0  0  0  0  0  0  0  0  0  0
   -2.4529   -0.1112    0.0000 C   0  0  0  0  0  0  0  0  0  0  0  0
  2  1  1  6
  2  3  1  0
  3  4  1  0
  4  5  1  0
  5  6  2  0
  5  7  1  0
  2  8  1  0
  8  9  1  6
  9 10  1  0
 11 10  1  6
 11 12  1  0
 12 13  1  1
 13 14  1  1
 13 15  1  0
 16 15  1  1
 16 17  1  0
 17 18  1  0
 18 19  1  1
 18 20  1  0
 20 21  1  0
 21 22  1  0
 22 23  1  6
 22 24  1  0
 24 25  1  6
 25 26  1  0
 26 27  1  1
 26 28  1  0
 28 29  1  6
 28  8  1  0
 28 11  1  0
 24 12  1  0
 22 16  1  0
M  END
>  <zinc_id>  (1) 
ZINC000006858022

>  <smiles>  (1) 
C[C@H](CCC(=O)O)[C@H]1CC[C@H]2[C@H]3[C@H](C[C@H](O)[C@@]21C)[C@@]1(C)CC[C@@H](O)C[C@H]1C[C@H]3O

$$$$
