
     RDKit          3D

 27 28  0  0  0  0  0  0  0  0999 V2000
   -4.1936    1.1148   -2.3567 C   0  0  0  0  0  0  0  0  0  0  0  0
   -4.5143    0.5855   -1.5830 C   0  0  0  0  0  0  0  0  0  0  0  0
   -4.8237    1.2033   -0.2475 C   0  0  0  0  0  0  0  0  0  0  0  0
   -5.2914    0.1909    0.7680 C   0  0  0  0  0  0  0  0  0  0  0  0
   -4.3002   -0.8896    1.0608 C   0  0  0  0  0  0  0  0  0  0  0  0
   -3.9212   -1.6630    0.0050 F   0  0  0  0  0  0  0  0  0  0  0  0
   -4.9803   -1.7796    1.9110 F   0  0  0  0  0  0  0  0  0  0  0  0
   -3.0345   -0.3829    1.7375 C   0  0  1  0  0  0  0  0  0  0  0  0
   -3.4992    0.1878    2.9524 O   0  0  0  0  0  0  0  0  0  0  0  0
   -2.0581   -1.3933    2.0748 C   0  0  0  0  0  0  0  0  0  0  0  0
   -0.6560   -1.3478    1.6463 C   0  0  0  0  0  0  0  0  0  0  0  0
   -0.6424   -0.2866    0.4487 C   0  0  1  0  0  0  0  0  0  0  0  0
   -1.1940    0.9762    1.5133 C   0  0  1  0  0  0  0  0  0  0  0  0
   -0.8631    2.0696    0.2826 C   0  0  0  0  0  0  0  0  0  0  0  0
    0.5158    1.7274    0.0034 C   0  0  0  0  0  0  0  0  0  0  0  0
    1.3161    2.3426   -0.6700 O   0  0  0  0  0  0  0  0  0  0  0  0
    0.8962    0.3537    0.7327 C   0  0  2  0  0  0  0  0  0  0  0  0
    1.4848   -0.3341   -0.6634 C   0  0  0  0  0  0  0  0  0  0  0  0
    2.9238    0.1277   -0.5938 C   0  0  0  0  0  0  0  0  0  0  0  0
    3.6011   -0.3937    0.6756 C   0  0  0  0  0  0  0  0  0  0  0  0
    5.0161    0.0398    0.7810 C   0  0  0  0  0  0  0  0  0  0  0  0
    5.9005   -0.4228   -0.3488 C   0  0  0  0  0  0  0  0  0  0  0  0
    5.3973    0.0713   -1.7123 C   0  0  0  0  0  0  0  0  0  0  0  0
    6.2990   -0.3783   -2.7861 C   0  0  0  0  0  0  0  0  0  0  0  0
    7.5447   -0.1484   -2.7689 O   0  0  0  0  0  0  0  0  0  0  0  0
    5.7144   -1.0941   -3.8611 O   0  0  0  0  0  0  0  0  0  0  0  0
   -2.6378    0.7348    0.9985 O   0  0  0  0  0  0  0  0  0  0  0  0
  1  2  1  0
  2  3  1  0
  3  4  1  0
  4  5  1  0
  5  6  1  0
  5  7  1  0
  5  8  1  0
  8  9  1  1
  8 10  1  0
 10 11  1  0
 12 11  1  1
 12 13  1  0
 13 14  1  6
 14 15  1  0
 15 16  2  0
 15 17  1  0
 17 18  1  6
 18 19  1  0
 19 20  1  0
 20 21  1  0
 21 22  1  0
 22 23  1  0
 23 24  1  0
 24 25  2  0
 24 26  1  0
 13 27  1  0
 27  8  1  0
 17 12  1  0
M  END
>  <zinc_id>  (1) 
ZINC000004217732

>  <smiles>  (1) 
CCCCC(F)(F)[C@@]1(O)CC[C@H]2[C@@H](CC(=O)[C@@H]2CCCCCCC(=O)O)O1

$$$$
