
     RDKit          3D

 25 27  0  0  0  0  0  0  0  0999 V2000
   -4.6421   -1.2511   -1.1111 C   0  0  0  0  0  0  0  0  0  0  0  0
   -3.4727   -1.0784   -0.5277 C   0  0  0  0  0  0  0  0  0  0  0  0
   -2.9792   -2.4529   -0.0123 C   0  0  0  0  0  0  0  0  0  0  0  0
   -2.1331   -0.3119   -1.2705 S   0  0  0  0  0  0  0  0  0  0  0  0
   -2.1256    1.1846   -0.1276 C   0  0  2  0  0  0  0  0  0  0  0  0
   -0.6388    1.3009    0.5716 C   0  0  2  0  0  0  0  0  0  0  0  0
    0.1129    0.0110    0.1799 N   0  0  0  0  0  0  0  0  0  0  0  0
    0.9497    0.2370   -0.9282 C   0  0  0  0  0  0  0  0  0  0  0  0
    0.9422    1.3526   -1.3838 O   0  0  0  0  0  0  0  0  0  0  0  0
    1.8613   -0.9048   -1.5572 C   0  0  2  0  0  0  0  0  0  0  0  0
    1.5418   -1.9938   -0.4849 N   0  0  0  0  0  0  0  0  0  0  0  0
    3.2544   -0.4887   -0.9250 C   0  0  0  0  0  0  0  0  0  0  0  0
    4.1429   -1.4823   -0.5724 C   0  0  0  0  0  0  0  0  0  0  0  0
    5.3760   -1.1859   -0.0180 C   0  0  0  0  0  0  0  0  0  0  0  0
    5.7294    0.1247    0.1897 C   0  0  0  0  0  0  0  0  0  0  0  0
    6.9842    0.4798    0.7574 O   0  0  0  0  0  0  0  0  0  0  0  0
    4.8411    1.1107   -0.1626 C   0  0  0  0  0  0  0  0  0  0  0  0
    3.6380    0.7517   -0.7072 C   0  0  0  0  0  0  0  0  0  0  0  0
   -1.3417    0.6639    1.8567 C   0  0  0  0  0  0  0  0  0  0  0  0
   -0.9862    0.5349    3.0170 O   0  0  0  0  0  0  0  0  0  0  0  0
   -2.4291    0.3634    1.1106 N   0  0  0  0  0  0  0  0  0  0  0  0
   -3.7607   -0.3668    0.9016 C   0  0  1  0  0  0  0  0  0  0  0  0
   -4.6592    0.8662    0.5096 C   0  0  0  0  0  0  0  0  0  0  0  0
   -5.8302    0.4237    0.3016 O   0  0  0  0  0  0  0  0  0  0  0  0
   -4.3751    2.1114    0.3927 O   0  0  0  0  0  0  0  0  0  0  0  0
  1  2  1  0
  2  3  1  0
  2  4  1  0
  5  4  1  6
  5  6  1  0
  6  7  1  6
  7  8  1  0
  8  9  2  0
  8 10  1  0
 10 11  1  1
 10 12  1  0
 12 13  2  0
 13 14  1  0
 14 15  2  0
 15 16  1  0
 15 17  1  0
 17 18  2  0
  6 19  1  0
 19 20  2  0
 19 21  1  0
 21 22  1  0
 22 23  1  6
 23 24  2  0
 23 25  1  0
 22  2  1  0
 21  5  1  0
 18 12  1  0
M  END
>  <zinc_id>  (1) 
ZINC000003830215

>  <smiles>  (1) 
CC1(C)S[C@@H]2[C@H](NC(=O)[C@H](N)c3ccc(O)cc3)C(=O)N2[C@H]1C(=O)O

$$$$
