
     RDKit          3D

 22 23  0  0  0  0  0  0  0  0999 V2000
   -4.2216   -0.8640    0.9143 C   0  0  0  0  0  0  0  0  0  0  0  0
   -4.0628    0.4446    0.1735 C   0  0  0  0  0  0  0  0  0  0  0  0
   -5.0669    1.4789    0.5393 C   0  0  0  0  0  0  0  0  0  0  0  0
   -4.0186    0.1541   -1.2611 N   0  0  0  0  0  0  0  0  0  0  0  0
   -2.7223   -0.4541   -1.4519 C   0  0  0  0  0  0  0  0  0  0  0  0
   -2.4208   -1.2433   -2.3778 O   0  0  0  0  0  0  0  0  0  0  0  0
   -1.8529   -0.0091   -0.4199 N   0  0  0  0  0  0  0  0  0  0  0  0
   -0.4761   -0.3363   -0.1843 C   0  0  0  0  0  0  0  0  0  0  0  0
   -0.0676   -1.6366    0.0044 C   0  0  0  0  0  0  0  0  0  0  0  0
    1.2345   -1.9820    0.2332 C   0  0  0  0  0  0  0  0  0  0  0  0
    2.2366   -0.9967    0.2866 C   0  0  0  0  0  0  0  0  0  0  0  0
    3.5404   -1.4622    0.5072 N   0  0  0  0  0  0  0  0  0  0  0  0
    4.3825   -0.8414    1.1393 O   0  0  0  0  0  0  0  0  0  0  0  0
    3.8877   -2.7063   -0.0061 O   0  0  0  0  0  0  0  0  0  0  0  0
    1.8427    0.3061    0.1004 C   0  0  0  0  0  0  0  0  0  0  0  0
    2.8394    1.4023    0.1487 C   0  0  0  0  0  0  0  0  0  0  0  0
    3.8241    1.1909   -0.7996 F   0  0  0  0  0  0  0  0  0  0  0  0
    2.1698    2.5649   -0.3014 F   0  0  0  0  0  0  0  0  0  0  0  0
    3.2840    1.7118    1.3930 F   0  0  0  0  0  0  0  0  0  0  0  0
    0.5009    0.6237   -0.1320 C   0  0  0  0  0  0  0  0  0  0  0  0
   -2.6448    0.8732    0.3915 C   0  0  0  0  0  0  0  0  0  0  0  0
   -2.1883    1.7815    1.1029 O   0  0  0  0  0  0  0  0  0  0  0  0
  1  2  1  0
  2  3  1  0
  2  4  1  0
  4  5  1  0
  5  6  2  0
  5  7  1  0
  7  8  1  0
  8  9  2  0
  9 10  1  0
 10 11  2  0
 11 12  1  0
 12 13  2  0
 12 14  1  0
 11 15  1  0
 15 16  1  0
 16 17  1  0
 16 18  1  0
 16 19  1  0
 15 20  2  0
  7 21  1  0
 21 22  2  0
 21  2  1  0
 20  8  1  0
M  CHG  2  12   1  14  -1
M  END
>  <zinc_id>  (1) 
ZINC000003874498

>  <smiles>  (1) 
CC1(C)NC(=O)N(c2ccc([N+](=O)[O-])c(C(F)(F)F)c2)C1=O

$$$$
