
     RDKit          3D

 24 24  0  0  0  0  0  0  0  0999 V2000
   -5.0018    2.5381   -0.4921 C   0  0  0  0  0  0  0  0  0  0  0  0
   -4.3155    1.9563   -0.2935 C   0  0  0  0  0  0  0  0  0  0  0  0
   -2.9972    2.2831    0.2378 C   0  0  0  0  0  0  0  0  0  0  0  0
   -4.8825    0.6205    0.5496 C   0  0  0  0  0  0  0  0  0  0  0  0
   -4.5123    0.4989   -1.0880 C   0  0  2  0  0  0  0  0  0  0  0  0
   -3.0688   -0.1703   -1.0029 C   0  0  0  0  0  0  0  0  0  0  0  0
   -2.3960    0.0652   -2.0125 O   0  0  0  0  0  0  0  0  0  0  0  0
   -2.6329   -0.9160    0.0592 N   0  0  0  0  0  0  0  0  0  0  0  0
   -1.3873   -1.5490    0.2131 C   0  0  0  0  0  0  0  0  0  0  0  0
   -0.6650   -1.2706    1.2343 C   0  0  0  0  0  0  0  0  0  0  0  0
   -1.0735   -0.3195    2.2611 C   0  0  0  0  0  0  0  0  0  0  0  0
   -0.0461    0.7769    2.3441 C   0  0  0  0  0  0  0  0  0  0  0  0
    1.3212    0.2696    2.7073 C   0  0  0  0  0  0  0  0  0  0  0  0
    1.9375   -0.6854    1.7497 C   0  0  0  0  0  0  0  0  0  0  0  0
    2.1702    0.0863    0.1192 S   0  0  0  0  0  0  0  0  0  0  0  0
    3.4183    1.3992    0.3192 C   0  0  0  0  0  0  0  0  0  0  0  0
    4.8174    0.5377    0.6881 C   0  0  2  0  0  0  0  0  0  0  0  0
    5.6878    1.8526    0.8029 N   0  0  0  0  0  0  0  0  0  0  0  0
    5.1677    0.2527   -0.8624 C   0  0  0  0  0  0  0  0  0  0  0  0
    4.5880   -0.7885   -1.2968 O   0  0  0  0  0  0  0  0  0  0  0  0
    5.9782    1.0503   -1.5604 O   0  0  0  0  0  0  0  0  0  0  0  0
   -0.8839   -2.5106   -0.7466 C   0  0  0  0  0  0  0  0  0  0  0  0
   -1.5599   -2.8254   -1.7841 O   0  0  0  0  0  0  0  0  0  0  0  0
    0.3366   -3.1521   -0.6263 O   0  0  0  0  0  0  0  0  0  0  0  0
  1  2  1  0
  2  3  1  0
  2  4  1  0
  4  5  1  0
  5  6  1  1
  6  7  2  0
  6  8  1  0
  8  9  1  0
  9 10  2  0
 10 11  1  0
 11 12  1  0
 12 13  1  0
 13 14  1  0
 14 15  1  0
 15 16  1  0
 16 17  1  0
 17 18  1  6
 17 19  1  0
 19 20  2  0
 19 21  1  0
  9 22  1  0
 22 23  2  0
 22 24  1  0
  5  2  1  0
M  END
>  <zinc_id>  (1) 
ZINC000004095696

>  <smiles>  (1) 
CC1(C)C[C@@H]1C(=O)N/C(=C\CCCCSC[C@H](N)C(=O)O)C(=O)O

$$$$
