
     RDKit          3D

 13 12  0  0  0  0  0  0  0  0999 V2000
   -2.5512    2.3913    0.0642 N   0  0  0  0  0  0  0  0  0  0  0  0
   -2.2284    1.0542   -0.3239 C   0  0  0  0  0  0  0  0  0  0  0  0
   -3.0850    0.3539   -0.8797 O   0  0  0  0  0  0  0  0  0  0  0  0
   -0.9396    0.6099   -0.0463 N   0  0  0  0  0  0  0  0  0  0  0  0
   -0.5761   -0.8468   -0.4638 C   0  0  1  0  0  0  0  0  0  0  0  0
    0.9883   -0.7450    0.0396 C   0  0  0  0  0  0  0  0  0  0  0  0
    1.6302    0.3474   -0.7232 C   0  0  0  0  0  0  0  0  0  0  0  0
    3.0118    0.6249   -0.4454 C   0  0  0  0  0  0  0  0  0  0  0  0
    3.6527   -0.0252    0.4012 O   0  0  0  0  0  0  0  0  0  0  0  0
    3.6374    1.6551   -1.1511 O   0  0  0  0  0  0  0  0  0  0  0  0
   -1.0748   -1.5492    0.8654 C   0  0  0  0  0  0  0  0  0  0  0  0
   -1.5596   -0.9581    1.8016 O   0  0  0  0  0  0  0  0  0  0  0  0
   -0.9057   -2.9125    0.8614 O   0  0  0  0  0  0  0  0  0  0  0  0
  1  2  1  0
  2  3  2  0
  2  4  1  0
  4  5  1  0
  5  6  1  1
  6  7  1  0
  7  8  1  0
  8  9  2  0
  8 10  1  0
  5 11  1  0
 11 12  2  0
 11 13  1  0
M  END
>  <zinc_id>  (1) 
ZINC000001530283

>  <smiles>  (1) 
NC(=O)N[C@@H](CCC(=O)O)C(=O)O

$$$$
