
     RDKit          3D

 21 22  0  0  0  0  0  0  0  0999 V2000
   -1.9820    2.4913    2.6886 C   0  0  0  0  0  0  0  0  0  0  0  0
   -2.6567    1.9650    1.5508 O   0  0  0  0  0  0  0  0  0  0  0  0
   -2.0853    0.8426    0.9252 C   0  0  0  0  0  0  0  0  0  0  0  0
   -0.9224    0.2699    1.3875 C   0  0  0  0  0  0  0  0  0  0  0  0
   -0.3957   -0.8476    0.7265 C   0  0  0  0  0  0  0  0  0  0  0  0
    0.8584   -1.4202    1.2879 C   0  0  0  0  0  0  0  0  0  0  0  0
    2.0306   -0.7120    0.7624 C   0  0  0  0  0  0  0  0  0  0  0  0
    2.6995    0.2477    1.5377 C   0  0  0  0  0  0  0  0  0  0  0  0
    3.7676    0.8893    1.0329 N   0  0  0  0  0  0  0  0  0  0  0  0
    4.2268    0.6430   -0.2062 C   0  0  0  0  0  0  0  0  0  0  0  0
    5.3772    1.3604   -0.7018 N   0  0  0  0  0  0  0  0  0  0  0  0
    3.5887   -0.2664   -0.9335 N   0  0  0  0  0  0  0  0  0  0  0  0
    2.5098   -0.9560   -0.5043 C   0  0  0  0  0  0  0  0  0  0  0  0
    1.9307   -1.9040   -1.3867 N   0  0  0  0  0  0  0  0  0  0  0  0
   -1.0380   -1.3660   -0.3751 C   0  0  0  0  0  0  0  0  0  0  0  0
   -2.2155   -0.7513   -0.8075 C   0  0  0  0  0  0  0  0  0  0  0  0
   -2.8848   -1.2570   -1.9202 O   0  0  0  0  0  0  0  0  0  0  0  0
   -2.3591   -2.3854   -2.5915 C   0  0  0  0  0  0  0  0  0  0  0  0
   -2.7393    0.3392   -0.1715 C   0  0  0  0  0  0  0  0  0  0  0  0
   -3.9082    0.8934   -0.6581 O   0  0  0  0  0  0  0  0  0  0  0  0
   -3.8024    1.9242   -1.6430 C   0  0  0  0  0  0  0  0  0  0  0  0
  1  2  1  0
  2  3  1  0
  3  4  2  0
  4  5  1  0
  5  6  1  0
  6  7  1  0
  7  8  2  0
  8  9  1  0
  9 10  2  0
 10 11  1  0
 10 12  1  0
 12 13  2  0
 13 14  1  0
  5 15  2  0
 15 16  1  0
 16 17  1  0
 17 18  1  0
 16 19  2  0
 19 20  1  0
 20 21  1  0
 19  3  1  0
 13  7  1  0
M  END
>  <zinc_id>  (1) 
ZINC000006627681

>  <smiles>  (1) 
COc1cc(Cc2cnc(N)nc2N)cc(OC)c1OC

$$$$
