
     RDKit          3D

 31 35  0  0  0  0  0  0  0  0999 V2000
   -3.9358    1.7638   -0.4841 C   0  0  0  0  0  0  0  0  0  0  0  0
   -3.4164    1.8594   -0.6488 C   0  0  0  0  0  0  0  0  0  0  0  0
   -3.4898    3.1743   -1.4081 C   0  0  0  0  0  0  0  0  0  0  0  0
   -2.8417    2.0517    0.6172 O   0  0  0  0  0  0  0  0  0  0  0  0
   -3.0508    0.5666    1.0318 C   0  0  2  0  0  0  0  0  0  0  0  0
   -1.5690    0.6098    1.8119 C   0  0  0  0  0  0  0  0  0  0  0  0
   -0.6700    0.6340    0.4545 C   0  0  1  0  0  0  0  0  0  0  0  0
    0.6986   -0.0546    1.1983 C   0  0  2  0  0  0  0  0  0  0  0  0
    1.3424    1.4359    1.3281 C   0  0  0  0  0  0  0  0  0  0  0  0
    2.7482    1.0781    2.0925 C   0  0  2  0  0  0  0  0  0  0  0  0
    3.2891    2.4742    1.9501 F   0  0  0  0  0  0  0  0  0  0  0  0
    3.4795    0.4517    0.8680 C   0  0  0  0  0  0  0  0  0  0  0  0
    4.5449    0.9635    0.3678 C   0  0  0  0  0  0  0  0  0  0  0  0
    5.2448    0.3669   -0.7921 C   0  0  0  0  0  0  0  0  0  0  0  0
    6.2691    0.8417   -1.2907 O   0  0  0  0  0  0  0  0  0  0  0  0
    4.6438   -0.8404   -1.3254 C   0  0  0  0  0  0  0  0  0  0  0  0
    3.5750   -1.3412   -0.8149 C   0  0  0  0  0  0  0  0  0  0  0  0
    2.8781   -0.7550    0.3208 C   0  0  1  0  0  0  0  0  0  0  0  0
    2.7447   -1.7470    1.4042 C   0  0  0  0  0  0  0  0  0  0  0  0
    1.4368   -0.2765   -0.2545 C   0  0  1  0  0  0  0  0  0  0  0  0
    0.9014   -1.7988   -0.7030 C   0  0  1  0  0  0  0  0  0  0  0  0
    0.5286   -2.4007    0.6117 O   0  0  0  0  0  0  0  0  0  0  0  0
   -0.6142   -1.3310   -1.1032 C   0  0  0  0  0  0  0  0  0  0  0  0
   -1.3071   -0.7730    0.0168 C   0  0  1  0  0  0  0  0  0  0  0  0
   -1.7681   -1.5949    1.1355 C   0  0  0  0  0  0  0  0  0  0  0  0
   -2.5162   -0.0019   -0.3985 C   0  0  1  0  0  0  0  0  0  0  0  0
   -3.5715   -0.8817   -0.9658 C   0  0  0  0  0  0  0  0  0  0  0  0
   -4.1170   -0.6927   -2.0394 O   0  0  0  0  0  0  0  0  0  0  0  0
   -4.0482   -2.0947   -0.2329 C   0  0  0  0  0  0  0  0  0  0  0  0
   -5.0319   -2.7550   -0.9549 O   0  0  0  0  0  0  0  0  0  0  0  0
   -2.3773    1.0676   -1.1687 O   0  0  0  0  0  0  0  0  0  0  0  0
  1  2  1  0
  2  3  1  0
  2  4  1  0
  4  5  1  0
  5  6  1  1
  7  6  1  1
  7  8  1  0
  8  9  1  1
  9 10  1  0
 10 11  1  6
 10 12  1  0
 12 13  2  0
 13 14  1  0
 14 15  2  0
 14 16  1  0
 16 17  2  0
 17 18  1  0
 18 19  1  1
 18 20  1  0
 20 21  1  6
 21 22  1  1
 21 23  1  0
 23 24  1  0
 24 25  1  1
 24 26  1  0
 26 27  1  6
 27 28  2  0
 27 29  1  0
 29 30  1  0
 26 31  1  0
 31  2  1  0
 26  5  1  0
 24  7  1  0
 20  8  1  0
 18 12  1  0
M  END
>  <zinc_id>  (1) 
ZINC000004097305

>  <smiles>  (1) 
CC1(C)O[C@@H]2C[C@H]3[C@@H]4C[C@H](F)C5=CC(=O)C=C[C@]5(C)[C@H]4[C@@H](O)C[C@]3(C)[C@]2(C(=O)CO)O1

$$$$
