
     RDKit          3D

 13 15  0  0  0  0  0  0  0  0999 V2000
    2.4504    0.5790    1.5975 C   0  0  0  0  0  0  0  0  0  0  0  0
    2.1035   -0.7430    0.6762 C   0  0  2  0  0  0  0  0  0  0  0  0
    2.8304   -0.1719   -0.5983 N   0  0  0  0  0  0  0  0  0  0  0  0
    0.6231   -0.2538    0.2078 C   0  0  1  0  0  0  0  0  0  0  0  0
    0.6787    1.0002   -0.5138 C   0  0  0  0  0  0  0  0  0  0  0  0
   -0.7126    1.4446   -0.7900 C   0  0  2  0  0  0  0  0  0  0  0  0
   -1.5984    1.4066    0.4402 C   0  0  0  0  0  0  0  0  0  0  0  0
   -1.6250    0.0121    1.0636 C   0  0  1  0  0  0  0  0  0  0  0  0
   -2.1414   -1.0044    0.0736 C   0  0  0  0  0  0  0  0  0  0  0  0
   -1.2330   -0.9864   -1.1581 C   0  0  1  0  0  0  0  0  0  0  0  0
   -1.2991    0.4009   -1.7525 C   0  0  0  0  0  0  0  0  0  0  0  0
    0.1270   -1.3853   -0.7011 C   0  0  0  0  0  0  0  0  0  0  0  0
   -0.2036   -0.2985    1.4550 C   0  0  0  0  0  0  0  0  0  0  0  0
  2  1  1  1
  2  3  1  0
  2  4  1  0
  4  5  1  6
  6  5  1  1
  6  7  1  0
  8  7  1  6
  8  9  1  0
 10  9  1  1
 10 11  1  0
 10 12  1  0
  8 13  1  0
 12  4  1  0
 13  4  1  0
 11  6  1  0
M  END
>  <zinc_id>  (1) 
ZINC000003831429

>  <smiles>  (1) 
C[C@H](N)C12CC3CC(CC(C3)C1)C2

$$$$
