
     RDKit          3D

 29 31  0  0  0  0  0  0  0  0999 V2000
    6.3654   -1.3925    3.6244 C   0  0  0  0  0  0  0  0  0  0  0  0
    5.7848   -1.2952    2.5676 C   0  0  0  0  0  0  0  0  0  0  0  0
    5.1103   -1.1658    1.3167 C   0  0  0  0  0  0  0  0  0  0  0  0
    5.7775   -1.3230    0.1300 C   0  0  0  0  0  0  0  0  0  0  0  0
    5.0889   -1.1898   -1.0499 C   0  0  0  0  0  0  0  0  0  0  0  0
    3.7182   -0.8963   -1.0616 C   0  0  0  0  0  0  0  0  0  0  0  0
    3.0529   -0.7395    0.1265 C   0  0  0  0  0  0  0  0  0  0  0  0
    1.6838   -0.4459    0.1597 N   0  0  0  0  0  0  0  0  0  0  0  0
    0.8713   -0.2858   -0.9946 C   0  0  0  0  0  0  0  0  0  0  0  0
    1.3598   -0.4053   -2.2405 N   0  0  0  0  0  0  0  0  0  0  0  0
    0.5489   -0.2446   -3.3176 C   0  0  0  0  0  0  0  0  0  0  0  0
   -0.7550    0.0367   -3.1443 N   0  0  0  0  0  0  0  0  0  0  0  0
   -1.3178    0.1716   -1.9450 C   0  0  0  0  0  0  0  0  0  0  0  0
   -2.6443    0.4581   -1.7388 C   0  0  0  0  0  0  0  0  0  0  0  0
   -3.1392    0.5794   -0.4600 C   0  0  0  0  0  0  0  0  0  0  0  0
   -4.4514    0.8638   -0.1787 O   0  0  0  0  0  0  0  0  0  0  0  0
   -5.5077    1.0891   -0.9780 C   0  0  0  0  0  0  0  0  0  0  0  0
   -5.5829    2.1936   -1.9229 C   0  0  0  0  0  0  0  0  0  0  0  0
   -4.6828    2.3200   -2.9234 O   0  0  0  0  0  0  0  0  0  0  0  0
   -4.9777    3.4536   -3.6794 C   0  0  0  0  0  0  0  0  0  0  0  0
   -2.2877    0.4103    0.6446 C   0  0  0  0  0  0  0  0  0  0  0  0
   -2.8488    0.5456    1.9075 O   0  0  0  0  0  0  0  0  0  0  0  0
   -1.9989    0.3770    3.0260 C   0  0  0  0  0  0  0  0  0  0  0  0
   -1.3953   -1.0161    3.0141 C   0  0  0  0  0  0  0  0  0  0  0  0
   -0.5648   -1.1509    4.1261 O   0  0  0  0  0  0  0  0  0  0  0  0
    0.4677   -0.1995    4.0972 C   0  0  0  0  0  0  0  0  0  0  0  0
   -0.9594    0.1235    0.4409 C   0  0  0  0  0  0  0  0  0  0  0  0
   -0.4701    0.0033   -0.8422 C   0  0  0  0  0  0  0  0  0  0  0  0
    3.7543   -0.8756    1.2955 C   0  0  0  0  0  0  0  0  0  0  0  0
  1  2  3  0
  2  3  1  0
  3  4  2  0
  4  5  1  0
  5  6  2  0
  6  7  1  0
  7  8  1  0
  8  9  1  0
  9 10  2  0
 10 11  1  0
 11 12  2  0
 12 13  1  0
 13 14  2  0
 14 15  1  0
 15 16  1  0
 16 17  1  0
 17 18  1  0
 18 19  1  0
 19 20  1  0
 15 21  2  0
 21 22  1  0
 22 23  1  0
 23 24  1  0
 24 25  1  0
 25 26  1  0
 21 27  1  0
 27 28  2  0
  7 29  2  0
 29  3  1  0
 28  9  1  0
 28 13  1  0
M  END
>  <zinc_id>  (1) 
ZINC000001546066

>  <smiles>  (1) 
C#Cc1cccc(Nc2ncnc3cc(OCCOC)c(OCCOC)cc23)c1

$$$$
