
     RDKit          3D

 19 19  0  0  0  0  0  0  0  0999 V2000
    4.4614    2.3360    0.3320 C   0  0  0  0  0  0  0  0  0  0  0  0
    3.7745    1.8260   -0.0682 C   0  0  0  0  0  0  0  0  0  0  0  0
    3.3635    2.1681   -1.5163 C   0  0  0  0  0  0  0  0  0  0  0  0
    3.5039    0.4581    0.0994 N   0  0  0  0  0  0  0  0  0  0  0  0
    3.1464   -0.0706    1.3400 C   0  0  0  0  0  0  0  0  0  0  0  0
    2.8958   -1.7295    1.0888 C   0  0  2  0  0  0  0  0  0  0  0  0
    4.3664   -1.8808    0.6051 O   0  0  0  0  0  0  0  0  0  0  0  0
    2.3222   -1.5055   -0.4566 C   0  0  0  0  0  0  0  0  0  0  0  0
    1.0697   -1.3428   -0.5039 O   0  0  0  0  0  0  0  0  0  0  0  0
   -0.2127   -1.1034   -0.4969 C   0  0  0  0  0  0  0  0  0  0  0  0
   -0.6978   -0.0459    0.2744 C   0  0  0  0  0  0  0  0  0  0  0  0
   -2.0240    0.2931    0.3507 C   0  0  0  0  0  0  0  0  0  0  0  0
   -2.9593   -0.4212   -0.3568 C   0  0  0  0  0  0  0  0  0  0  0  0
   -4.3953   -0.1602   -0.3227 C   0  0  0  0  0  0  0  0  0  0  0  0
   -4.8064    1.1202   -0.8769 C   0  0  0  0  0  0  0  0  0  0  0  0
   -5.4861    1.1024   -2.1665 N   0  0  0  0  0  0  0  0  0  0  0  0
   -4.6214    2.2503   -0.3341 O   0  0  0  0  0  0  0  0  0  0  0  0
   -2.5169   -1.4802   -1.1361 C   0  0  0  0  0  0  0  0  0  0  0  0
   -1.1840   -1.8141   -1.2045 C   0  0  0  0  0  0  0  0  0  0  0  0
  1  2  1  0
  2  3  1  0
  2  4  1  0
  4  5  1  0
  5  6  1  0
  6  7  1  6
  6  8  1  0
  8  9  1  0
  9 10  1  0
 10 11  2  0
 11 12  1  0
 12 13  2  0
 13 14  1  0
 14 15  1  0
 15 16  1  0
 15 17  2  0
 13 18  1  0
 18 19  2  0
 19 10  1  0
M  END
>  <zinc_id>  (1) 
ZINC000000113415

>  <smiles>  (1) 
CC(C)NC[C@H](O)COc1ccc(CC(N)=O)cc1

$$$$
