
     RDKit          3D

 26 31  0  0  0  0  0  0  0  0999 V2000
    2.8019    1.2347    0.3043 C   0  0  0  0  0  0  0  0  0  0  0  0
    2.2985    0.3557   -0.0415 N   0  0  1  0  0  0  0  0  0  0  0  0
    3.1978   -0.3452   -0.9828 C   0  0  0  0  0  0  0  0  0  0  0  0
    4.3551   -0.8287   -0.1730 C   0  0  0  0  0  0  0  0  0  0  0  0
    5.2469    0.0522    0.5809 C   0  0  0  0  0  0  0  0  0  0  0  0
    5.7607   -0.6502   -0.6103 C   0  0  0  0  0  0  0  0  0  0  0  0
    1.8766   -0.5336    0.9392 C   0  0  0  0  0  0  0  0  0  0  0  0
    0.5633   -0.3482    1.5874 C   0  0  0  0  0  0  0  0  0  0  0  0
   -0.4740   -0.4621    0.4597 C   0  0  1  0  0  0  0  0  0  0  0  0
   -1.3711    0.6645    0.5237 C   0  0  0  0  0  0  0  0  0  0  0  0
   -2.6350    0.3042    0.7761 C   0  0  0  0  0  0  0  0  0  0  0  0
   -3.5156    1.3679    0.8051 C   0  0  0  0  0  0  0  0  0  0  0  0
   -4.8647    1.2208    1.0486 O   0  0  0  0  0  0  0  0  0  0  0  0
   -3.0566    2.6787    0.5808 C   0  0  0  0  0  0  0  0  0  0  0  0
   -1.7236    2.9730    0.3240 C   0  0  0  0  0  0  0  0  0  0  0  0
   -0.8403    1.8937    0.2972 C   0  0  0  0  0  0  0  0  0  0  0  0
    0.5703    1.9061    0.0783 C   0  0  0  0  0  0  0  0  0  0  0  0
    1.1214    0.8308   -0.9585 C   0  0  2  0  0  0  0  0  0  0  0  0
    0.1842   -0.4666   -0.7913 C   0  0  1  0  0  0  0  0  0  0  0  0
    0.9623   -1.4739   -1.2542 O   0  0  0  0  0  0  0  0  0  0  0  0
   -0.9121   -0.2959   -1.8696 C   0  0  0  0  0  0  0  0  0  0  0  0
   -1.5998   -1.6303   -1.8715 C   0  0  0  0  0  0  0  0  0  0  0  0
   -1.7112   -2.2998   -0.6253 C   0  0  0  0  0  0  0  0  0  0  0  0
   -2.0655   -3.4490   -0.5425 O   0  0  0  0  0  0  0  0  0  0  0  0
   -1.4081   -1.6970    0.8073 C   0  0  2  0  0  0  0  0  0  0  0  0
   -2.7614   -1.0014    0.9418 O   0  0  0  0  0  0  0  0  0  0  0  0
  2  1  1  1
  2  3  1  0
  3  4  1  0
  4  5  1  0
  5  6  1  0
  2  7  1  0
  7  8  1  0
  9  8  1  1
  9 10  1  0
 10 11  2  0
 11 12  1  0
 12 13  1  0
 12 14  2  0
 14 15  1  0
 15 16  2  0
 16 17  1  0
 18 17  1  1
 18 19  1  0
 19 20  1  6
 19 21  1  0
 21 22  1  0
 22 23  1  0
 23 24  2  0
 23 25  1  0
 25 26  1  6
 18  2  1  0
  6  4  1  0
 19  9  1  0
 25  9  1  0
 16 10  1  0
 26 11  1  0
M  CHG  1   2   1
M  END
>  <zinc_id>  (1) 
ZINC000005764759

>  <smiles>  (1) 
C[N+]1(CC2CC2)CC[C@]23c4c5ccc(O)c4O[C@H]2C(=O)CC[C@@]3(O)[C@H]1C5

$$$$
