
     RDKit          3D

 28 30  0  0  0  0  0  0  0  0999 V2000
   -2.7508    1.6284   -1.6064 C   0  0  0  0  0  0  0  0  0  0  0  0
   -3.3665    0.4391   -0.9389 C   0  0  0  0  0  0  0  0  0  0  0  0
   -4.6799    0.4708   -0.4825 C   0  0  0  0  0  0  0  0  0  0  0  0
   -5.2565   -0.6204    0.1341 C   0  0  0  0  0  0  0  0  0  0  0  0
   -6.6492   -0.5954    0.6213 C   0  0  0  0  0  0  0  0  0  0  0  0
   -7.3503    0.5116    0.4544 C   0  0  0  0  0  0  0  0  0  0  0  0
   -8.7103    0.5744    0.9157 C   0  0  0  0  0  0  0  0  0  0  0  0
   -9.8112    0.6163    1.2726 N   0  0  0  0  0  0  0  0  0  0  0  0
   -4.4961   -1.7648    0.2940 C   0  0  0  0  0  0  0  0  0  0  0  0
   -3.1892   -1.8078   -0.1558 C   0  0  0  0  0  0  0  0  0  0  0  0
   -2.3512   -3.0419    0.0102 C   0  0  0  0  0  0  0  0  0  0  0  0
   -2.6132   -0.6962   -0.7799 C   0  0  0  0  0  0  0  0  0  0  0  0
   -1.2754   -0.7294   -1.2444 N   0  0  0  0  0  0  0  0  0  0  0  0
   -0.1673   -0.3496   -0.4420 C   0  0  0  0  0  0  0  0  0  0  0  0
   -0.2713    0.0850    0.8532 C   0  0  0  0  0  0  0  0  0  0  0  0
    0.9085    0.4158    1.4931 C   0  0  0  0  0  0  0  0  0  0  0  0
    2.1080    0.3221    0.8902 N   0  0  0  0  0  0  0  0  0  0  0  0
    2.1798   -0.1066   -0.3790 C   0  0  0  0  0  0  0  0  0  0  0  0
    3.4488   -0.2014   -1.0041 N   0  0  0  0  0  0  0  0  0  0  0  0
    4.6662    0.1371   -0.3523 C   0  0  0  0  0  0  0  0  0  0  0  0
    4.7425    0.5906    0.9478 C   0  0  0  0  0  0  0  0  0  0  0  0
    5.9445    0.9085    1.5440 C   0  0  0  0  0  0  0  0  0  0  0  0
    7.1371    0.7868    0.8620 C   0  0  0  0  0  0  0  0  0  0  0  0
    8.3937    1.1202    1.4882 C   0  0  0  0  0  0  0  0  0  0  0  0
    9.4117    1.3821    1.9739 N   0  0  0  0  0  0  0  0  0  0  0  0
    7.0747    0.3342   -0.4393 C   0  0  0  0  0  0  0  0  0  0  0  0
    5.8704    0.0175   -1.0311 C   0  0  0  0  0  0  0  0  0  0  0  0
    1.0527   -0.4267   -1.0021 N   0  0  0  0  0  0  0  0  0  0  0  0
  1  2  1  0
  2  3  2  0
  3  4  1  0
  4  5  1  0
  5  6  2  0
  6  7  1  0
  7  8  3  0
  4  9  2  0
  9 10  1  0
 10 11  1  0
 10 12  2  0
 12 13  1  0
 13 14  1  0
 14 15  2  0
 15 16  1  0
 16 17  2  0
 17 18  1  0
 18 19  1  0
 19 20  1  0
 20 21  2  0
 21 22  1  0
 22 23  2  0
 23 24  1  0
 24 25  3  0
 23 26  1  0
 26 27  2  0
 18 28  2  0
 12  2  1  0
 28 14  1  0
 27 20  1  0
M  END
>  <zinc_id>  (1) 
ZINC000001554274

>  <smiles>  (1) 
Cc1cc(/C=C/C#N)cc(C)c1Nc1ccnc(Nc2ccc(C#N)cc2)n1

$$$$
