
     RDKit          3D

 43 43  0  0  0  0  0  0  0  0999 V2000
    7.8690    6.7253    2.6567 C   0  0  0  0  0  0  0  0  0  0  0  0
    6.6062    5.9036    2.6814 C   0  0  0  0  0  0  0  0  0  0  0  0
    6.0646    5.6608    1.2916 C   0  0  0  0  0  0  0  0  0  0  0  0
    7.0822    4.9130    0.4355 C   0  0  0  0  0  0  0  0  0  0  0  0
    6.4699    4.7082   -0.9349 C   0  0  0  0  0  0  0  0  0  0  0  0
    7.3818    3.9812   -1.8658 C   0  0  0  0  0  0  0  0  0  0  0  0
    7.7091    2.6297   -1.3058 C   0  0  0  0  0  0  0  0  0  0  0  0
    8.6428    1.8555   -2.2344 C   0  0  0  0  0  0  0  0  0  0  0  0
    8.9383    0.5073   -1.6238 C   0  0  0  0  0  0  0  0  0  0  0  0
    7.6952   -0.2917   -1.4258 C   0  0  0  0  0  0  0  0  0  0  0  0
    7.1990   -1.1444   -2.3909 C   0  0  0  0  0  0  0  0  0  0  0  0
    6.0440   -1.8681   -2.1705 C   0  0  0  0  0  0  0  0  0  0  0  0
    5.3345   -1.7793   -0.9919 C   0  0  0  0  0  0  0  0  0  0  0  0
    4.1690   -2.5302   -0.8098 O   0  0  0  0  0  0  0  0  0  0  0  0
    3.4037   -2.4892    0.3543 C   0  0  0  0  0  0  0  0  0  0  0  0
    2.2282   -3.4275    0.1840 C   0  0  0  0  0  0  0  0  0  0  0  0
    2.7237   -4.6896   -0.0296 O   0  0  0  0  0  0  0  0  0  0  0  0
    1.8267   -5.7070   -0.2114 C   0  0  0  0  0  0  0  0  0  0  0  0
    0.9267   -5.9090    0.9346 C   0  0  0  0  0  0  0  0  0  0  0  0
    0.1298   -4.8259    1.2369 O   0  0  0  0  0  0  0  0  0  0  0  0
   -0.7257   -4.6195    0.1227 C   0  0  0  0  0  0  0  0  0  0  0  0
   -1.5557   -5.8544   -0.0926 C   0  0  0  0  0  0  0  0  0  0  0  0
   -2.3611   -6.2173    0.9499 O   0  0  0  0  0  0  0  0  0  0  0  0
   -3.3108   -5.2959    1.2874 C   0  0  0  0  0  0  0  0  0  0  0  0
   -2.7853   -3.9637    1.7214 C   0  0  0  0  0  0  0  0  0  0  0  0
   -3.8809   -3.1498    2.0269 O   0  0  0  0  0  0  0  0  0  0  0  0
   -4.6568   -3.0318    0.8756 C   0  0  0  0  0  0  0  0  0  0  0  0
   -5.8639   -2.1634    1.1278 C   0  0  0  0  0  0  0  0  0  0  0  0
   -6.6088   -2.0716   -0.0413 O   0  0  0  0  0  0  0  0  0  0  0  0
   -7.7340   -1.2852    0.1247 C   0  0  0  0  0  0  0  0  0  0  0  0
   -7.3884    0.1297    0.5338 C   0  0  0  0  0  0  0  0  0  0  0  0
   -6.7048    0.1768    1.7148 O   0  0  0  0  0  0  0  0  0  0  0  0
   -6.3374    1.3975    2.1881 C   0  0  0  0  0  0  0  0  0  0  0  0
   -7.4126    2.3782    2.4759 C   0  0  0  0  0  0  0  0  0  0  0  0
   -8.1971    2.7446    1.4201 O   0  0  0  0  0  0  0  0  0  0  0  0
   -7.5164    3.3765    0.3761 C   0  0  0  0  0  0  0  0  0  0  0  0
   -8.5635    3.6988   -0.6888 C   0  0  0  0  0  0  0  0  0  0  0  0
   -7.9611    4.3383   -1.7785 O   0  0  0  0  0  0  0  0  0  0  0  0
   -7.3798    5.5043   -1.3319 C   0  0  0  0  0  0  0  0  0  0  0  0
   -6.7170    6.2322   -2.4649 C   0  0  0  0  0  0  0  0  0  0  0  0
   -7.5956    6.5834   -3.4816 O   0  0  0  0  0  0  0  0  0  0  0  0
    5.8290   -0.9274   -0.0262 C   0  0  0  0  0  0  0  0  0  0  0  0
    6.9830   -0.2032   -0.2442 C   0  0  0  0  0  0  0  0  0  0  0  0
  1  2  1  0
  2  3  1  0
  3  4  1  0
  4  5  1  0
  5  6  1  0
  6  7  1  0
  7  8  1  0
  8  9  1  0
  9 10  1  0
 10 11  2  0
 11 12  1  0
 12 13  2  0
 13 14  1  0
 14 15  1  0
 15 16  1  0
 16 17  1  0
 17 18  1  0
 18 19  1  0
 19 20  1  0
 20 21  1  0
 21 22  1  0
 22 23  1  0
 23 24  1  0
 24 25  1  0
 25 26  1  0
 26 27  1  0
 27 28  1  0
 28 29  1  0
 29 30  1  0
 30 31  1  0
 31 32  1  0
 32 33  1  0
 33 34  1  0
 34 35  1  0
 35 36  1  0
 36 37  1  0
 37 38  1  0
 38 39  1  0
 39 40  1  0
 40 41  1  0
 13 42  1  0
 42 43  2  0
 43 10  1  0
M  END
>  <zinc_id>  (1) 
ZINC000008214629

>  <smiles>  (1) 
CCCCCCCCCc1ccc(OCCOCCOCCOCCOCCOCCOCCOCCOCCO)cc1

$$$$
