
     RDKit          3D

 28 31  0  0  0  0  0  0  0  0999 V2000
   -5.1009   -3.7820   -0.6774 C   0  0  0  0  0  0  0  0  0  0  0  0
   -4.7836   -2.3570   -0.5380 N   0  0  0  0  0  0  0  0  0  0  0  0
   -5.7903   -1.3603   -0.5284 C   0  0  0  0  0  0  0  0  0  0  0  0
   -6.9963   -1.6679   -0.6397 O   0  0  0  0  0  0  0  0  0  0  0  0
   -5.4051    0.0295   -0.3871 C   0  0  0  0  0  0  0  0  0  0  0  0
   -6.3358    1.0612   -0.3692 C   0  0  0  0  0  0  0  0  0  0  0  0
   -5.9616    2.3816   -0.2344 C   0  0  0  0  0  0  0  0  0  0  0  0
   -4.6010    2.6599   -0.1143 C   0  0  0  0  0  0  0  0  0  0  0  0
   -3.6471    1.6709   -0.1269 C   0  0  0  0  0  0  0  0  0  0  0  0
   -4.0788    0.3476   -0.2661 C   0  0  0  0  0  0  0  0  0  0  0  0
   -2.8572   -0.9560   -0.2854 S   0  0  0  0  0  0  0  0  0  0  0  0
   -1.2188   -0.2657   -0.1115 C   0  0  0  0  0  0  0  0  0  0  0  0
   -0.1207   -1.0996   -0.1013 C   0  0  0  0  0  0  0  0  0  0  0  0
    1.1732   -0.6013    0.0322 C   0  0  0  0  0  0  0  0  0  0  0  0
    1.3488    0.7636    0.1567 C   0  0  0  0  0  0  0  0  0  0  0  0
    2.4763    1.5059    0.2983 C   0  0  0  0  0  0  0  0  0  0  0  0
    3.8596    1.0648    0.3612 C   0  0  0  0  0  0  0  0  0  0  0  0
    4.2609   -0.1691    0.2888 C   0  0  0  0  0  0  0  0  0  0  0  0
    5.6354   -0.6187    0.3504 C   0  0  0  0  0  0  0  0  0  0  0  0
    5.8951   -1.9714    0.2582 C   0  0  0  0  0  0  0  0  0  0  0  0
    7.1881   -2.4863    0.3087 C   0  0  0  0  0  0  0  0  0  0  0  0
    8.2544   -1.6235    0.4557 C   0  0  0  0  0  0  0  0  0  0  0  0
    7.9719   -0.2756    0.5459 C   0  0  0  0  0  0  0  0  0  0  0  0
    6.6942    0.1892    0.4925 N   0  0  0  0  0  0  0  0  0  0  0  0
    2.1003    2.7924    0.3768 N   0  0  0  0  0  0  0  0  0  0  0  0
    0.7631    2.8691    0.2873 N   0  0  0  0  0  0  0  0  0  0  0  0
    0.2596    1.6432    0.1508 C   0  0  0  0  0  0  0  0  0  0  0  0
   -0.9840    1.0876    0.0162 C   0  0  0  0  0  0  0  0  0  0  0  0
  1  2  1  0
  2  3  1  0
  3  4  2  0
  3  5  1  0
  5  6  2  0
  6  7  1  0
  7  8  2  0
  8  9  1  0
  9 10  2  0
 10 11  1  0
 11 12  1  0
 12 13  2  0
 13 14  1  0
 14 15  2  0
 15 16  1  0
 16 17  1  0
 17 18  2  0
 18 19  1  0
 19 20  2  0
 20 21  1  0
 21 22  2  0
 22 23  1  0
 23 24  2  0
 16 25  2  0
 25 26  1  0
 26 27  1  0
 27 28  2  0
 10  5  1  0
 28 12  1  0
 27 15  1  0
 24 19  1  0
M  END
>  <zinc_id>  (1) 
ZINC000003816287

>  <smiles>  (1) 
CNC(=O)c1ccccc1Sc1ccc2c(/C=C/c3ccccn3)n[nH]c2c1

$$$$
