
     RDKit          3D

 19 20  0  0  0  0  0  0  0  0999 V2000
   -4.1257   -0.4982    0.9998 C   0  0  0  0  0  0  0  0  0  0  0  0
   -2.8742   -0.9770    1.4180 N   0  0  0  0  0  0  0  0  0  0  0  0
   -2.7031   -0.9396    2.8568 C   0  0  0  0  0  0  0  0  0  0  0  0
   -1.7418   -0.4262    0.7556 C   0  0  0  0  0  0  0  0  0  0  0  0
   -1.7200   -0.8655   -0.6370 C   0  0  0  0  0  0  0  0  0  0  0  0
   -0.5120   -0.3239   -1.4842 C   0  0  2  0  0  0  0  0  0  0  0  0
    0.6593   -0.9100   -0.6680 C   0  0  0  0  0  0  0  0  0  0  0  0
    1.9040   -0.7770   -1.2797 C   0  0  0  0  0  0  0  0  0  0  0  0
    3.0487   -1.2758   -0.6395 C   0  0  0  0  0  0  0  0  0  0  0  0
    2.9554   -1.8945    0.5864 C   0  0  0  0  0  0  0  0  0  0  0  0
    4.4102   -2.5157    1.3793 Cl  0  0  0  0  0  0  0  0  0  0  0  0
    1.7295   -2.0171    1.1731 C   0  0  0  0  0  0  0  0  0  0  0  0
    0.6114   -1.5119    0.5122 C   0  0  0  0  0  0  0  0  0  0  0  0
   -0.4598    1.1595   -1.0709 C   0  0  0  0  0  0  0  0  0  0  0  0
    0.5669    1.8525   -1.6602 C   0  0  0  0  0  0  0  0  0  0  0  0
    0.7655    3.2191   -1.4176 C   0  0  0  0  0  0  0  0  0  0  0  0
   -0.1240    3.8235   -0.5567 C   0  0  0  0  0  0  0  0  0  0  0  0
   -1.1241    3.0874   -0.0003 C   0  0  0  0  0  0  0  0  0  0  0  0
   -1.2663    1.7904   -0.2671 N   0  0  0  0  0  0  0  0  0  0  0  0
  1  2  1  0
  2  3  1  0
  2  4  1  0
  4  5  1  0
  6  5  1  1
  6  7  1  0
  7  8  2  0
  8  9  1  0
  9 10  2  0
 10 11  1  0
 10 12  1  0
 12 13  2  0
  6 14  1  0
 14 15  2  0
 15 16  1  0
 16 17  2  0
 17 18  1  0
 18 19  2  0
 13  7  1  0
 19 14  1  0
M  END
>  <zinc_id>  (1) 
ZINC000000113410

>  <smiles>  (1) 
CN(C)CC[C@H](c1ccc(Cl)cc1)c1ccccn1

$$$$
