
     RDKit          3D

 20 21  0  0  0  0  0  0  0  0999 V2000
    3.4981    0.3169   -1.4441 C   0  0  0  0  0  0  0  0  0  0  0  0
    3.7572    0.6253   -0.1188 N   0  0  0  0  0  0  0  0  0  0  0  0
    5.1890    0.5374    0.1428 C   0  0  0  0  0  0  0  0  0  0  0  0
    3.0906   -0.2918    0.7889 C   0  0  0  0  0  0  0  0  0  0  0  0
    1.5886   -0.1219    0.7509 C   0  0  0  0  0  0  0  0  0  0  0  0
    1.1451   -0.3668   -0.5165 O   0  0  0  0  0  0  0  0  0  0  0  0
   -0.2070   -0.2492   -0.7174 C   0  0  2  0  0  0  0  0  0  0  0  0
   -0.4460   -0.5756   -2.1980 C   0  0  0  0  0  0  0  0  0  0  0  0
   -0.7834    1.0667   -0.4267 C   0  0  0  0  0  0  0  0  0  0  0  0
   -1.7250    1.5969   -1.2839 C   0  0  0  0  0  0  0  0  0  0  0  0
   -2.2923    2.8238   -1.0473 C   0  0  0  0  0  0  0  0  0  0  0  0
   -1.9565    3.5860    0.0484 C   0  0  0  0  0  0  0  0  0  0  0  0
   -1.0122    3.0673    0.9191 C   0  0  0  0  0  0  0  0  0  0  0  0
   -0.4499    1.8345    0.6703 C   0  0  0  0  0  0  0  0  0  0  0  0
   -0.9102   -1.3209    0.0415 C   0  0  0  0  0  0  0  0  0  0  0  0
   -2.2643   -1.5226   -0.1246 C   0  0  0  0  0  0  0  0  0  0  0  0
   -2.9385   -2.5231    0.5797 C   0  0  0  0  0  0  0  0  0  0  0  0
   -2.1960   -3.2937    1.4410 C   0  0  0  0  0  0  0  0  0  0  0  0
   -0.8417   -3.0875    1.6029 C   0  0  0  0  0  0  0  0  0  0  0  0
   -0.2456   -2.1017    0.8919 N   0  0  0  0  0  0  0  0  0  0  0  0
  1  2  1  0
  2  3  1  0
  2  4  1  0
  4  5  1  0
  5  6  1  0
  6  7  1  0
  7  8  1  6
  7  9  1  0
  9 10  2  0
 10 11  1  0
 11 12  2  0
 12 13  1  0
 13 14  2  0
  7 15  1  0
 15 16  2  0
 16 17  1  0
 17 18  2  0
 18 19  1  0
 19 20  2  0
 14  9  1  0
 20 15  1  0
M  END
>  <zinc_id>  (1) 
ZINC000007997952

>  <smiles>  (1) 
CN(C)CCO[C@](C)(c1ccccc1)c1ccccn1

$$$$
