
     RDKit          3D

 31 35  0  0  0  0  0  0  0  0999 V2000
    5.1850    2.5611   -0.3804 C   0  0  0  0  0  0  0  0  0  0  0  0
    4.4722    1.8182   -0.1480 C   0  0  0  0  0  0  0  0  0  0  0  0
    4.4727    0.4663   -0.9801 C   0  0  1  0  0  0  0  0  0  0  0  0
    4.2674    0.8260   -2.2909 O   0  0  0  0  0  0  0  0  0  0  0  0
    5.7642   -0.1296   -0.6821 C   0  0  0  0  0  0  0  0  0  0  0  0
    6.8185    0.4410   -1.0651 O   0  0  0  0  0  0  0  0  0  0  0  0
    5.7440   -1.3257    0.0462 O   0  0  0  0  0  0  0  0  0  0  0  0
    4.8662   -1.3075    1.1991 C   0  0  0  0  0  0  0  0  0  0  0  0
    3.4711   -0.9661    0.7740 C   0  0  0  0  0  0  0  0  0  0  0  0
    3.2957   -0.2318   -0.3529 C   0  0  0  0  0  0  0  0  0  0  0  0
    2.0507    0.0521   -0.8366 C   0  0  0  0  0  0  0  0  0  0  0  0
    0.9854   -0.4547   -0.0898 C   0  0  0  0  0  0  0  0  0  0  0  0
    1.1672   -1.1957    1.0346 N   0  0  0  0  0  0  0  0  0  0  0  0
    2.4329   -1.4716    1.5016 C   0  0  0  0  0  0  0  0  0  0  0  0
    2.6179   -2.1490    2.5602 O   0  0  0  0  0  0  0  0  0  0  0  0
   -0.1344   -1.5594    1.5676 C   0  0  0  0  0  0  0  0  0  0  0  0
   -1.1074   -0.8806    0.7122 C   0  0  0  0  0  0  0  0  0  0  0  0
   -2.4900   -0.8039    0.7757 C   0  0  0  0  0  0  0  0  0  0  0  0
   -3.1448   -0.0797   -0.2381 C   0  0  0  0  0  0  0  0  0  0  0  0
   -2.4448    0.5207   -1.2558 C   0  0  0  0  0  0  0  0  0  0  0  0
   -3.1755    1.2018   -2.1993 C   0  0  0  0  0  0  0  0  0  0  0  0
   -4.5476    1.3178   -2.1958 C   0  0  0  0  0  0  0  0  0  0  0  0
   -5.2350    0.6909   -1.1448 C   0  0  0  0  0  0  0  0  0  0  0  0
   -6.6392    0.7798   -1.1516 O   0  0  0  0  0  0  0  0  0  0  0  0
   -4.5265    0.0194   -0.2015 C   0  0  0  0  0  0  0  0  0  0  0  0
   -5.1249   -0.6848    0.9885 C   0  0  0  0  0  0  0  0  0  0  0  0
   -5.8374    0.2202    1.8376 N   0  0  0  0  0  0  0  0  0  0  0  0
   -4.7771    1.1548    2.4075 C   0  0  0  0  0  0  0  0  0  0  0  0
   -6.8920    1.0030    1.4260 C   0  0  0  0  0  0  0  0  0  0  0  0
   -1.0991    0.4327   -1.2878 N   0  0  0  0  0  0  0  0  0  0  0  0
   -0.4356   -0.2658   -0.3010 C   0  0  0  0  0  0  0  0  0  0  0  0
  1  2  1  0
  2  3  1  0
  3  4  1  6
  3  5  1  0
  5  6  2  0
  5  7  1  0
  7  8  1  0
  8  9  1  0
  9 10  2  0
 10 11  1  0
 11 12  2  0
 12 13  1  0
 13 14  1  0
 14 15  2  0
 13 16  1  0
 16 17  1  0
 17 18  2  0
 18 19  1  0
 19 20  2  0
 20 21  1  0
 21 22  2  0
 22 23  1  0
 23 24  1  0
 23 25  2  0
 25 26  1  0
 26 27  1  0
 27 28  1  0
 27 29  1  0
 20 30  1  0
 30 31  2  0
 10  3  1  0
 31 12  1  0
 14  9  1  0
 31 17  1  0
 25 19  1  0
M  END
>  <zinc_id>  (1) 
ZINC000001611274

>  <smiles>  (1) 
CC[C@@]1(O)C(=O)OCc2c1cc1n(c2=O)Cc2cc3c(CN(C)C)c(O)ccc3nc2-1

$$$$
