
     RDKit          2D

 40 42  0  0  0  0  0  0  0  0999 V2000
   -5.2111    6.2987    0.0000 N   0  0  0  0  0  0  0  0  0  0  0  0
   -4.1075    5.2827    0.0000 C   0  0  0  0  0  0  0  0  0  0  0  0
   -4.4357    3.8191    0.0000 C   0  0  0  0  0  0  0  0  0  0  0  0
   -3.3322    2.8031    0.0000 C   0  0  0  0  0  0  0  0  0  0  0  0
   -1.9005    3.2507    0.0000 O   0  0  0  0  0  0  0  0  0  0  0  0
   -3.6603    1.3394    0.0000 C   0  0  0  0  0  0  0  0  0  0  0  0
   -5.0919    0.8917    0.0000 O   0  0  0  0  0  0  0  0  0  0  0  0
   -2.5568    0.3234    0.0000 N   0  0  0  0  0  0  0  0  0  0  0  0
   -1.1251    0.7711    0.0000 C   0  0  0  0  0  0  0  0  0  0  0  0
   -0.7970    2.2347    0.0000 C   0  0  0  0  0  0  0  0  0  0  0  0
    0.6346    2.6824    0.0000 C   0  0  0  0  0  0  0  0  0  0  0  0
    0.9628    4.1461    0.0000 N   0  0  0  0  0  0  0  0  0  0  0  0
    1.7381    1.6664    0.0000 C   0  0  0  0  0  0  0  0  0  0  0  0
    3.1698    2.1141    0.0000 O   0  0  0  0  0  0  0  0  0  0  0  0
    4.2733    1.0981    0.0000 C   0  0  0  0  0  0  0  0  0  0  0  0
    3.9452   -0.3656    0.0000 O   0  0  0  0  0  0  0  0  0  0  0  0
    5.0487   -1.3816    0.0000 C   0  0  0  0  0  0  0  0  0  0  0  0
    4.7205   -2.8453    0.0000 C   0  0  0  0  0  0  0  0  0  0  0  0
    5.8241   -3.8613    0.0000 N   0  0  0  0  0  0  0  0  0  0  0  0
    6.4803   -0.9340    0.0000 C   0  0  0  0  0  0  0  0  0  0  0  0
    7.5838   -1.9500    0.0000 O   0  0  0  0  0  0  0  0  0  0  0  0
    6.8084    0.5297    0.0000 C   0  0  0  0  0  0  0  0  0  0  0  0
    8.2401    0.9774    0.0000 O   0  0  0  0  0  0  0  0  0  0  0  0
    5.7049    1.5457    0.0000 C   0  0  0  0  0  0  0  0  0  0  0  0
    6.0331    3.0094    0.0000 O   0  0  0  0  0  0  0  0  0  0  0  0
    1.4100    0.2027    0.0000 C   0  0  0  0  0  0  0  0  0  0  0  0
    2.5135   -0.8133    0.0000 O   0  0  0  0  0  0  0  0  0  0  0  0
   -0.0216   -0.2450    0.0000 C   0  0  0  0  0  0  0  0  0  0  0  0
   -0.3498   -1.7086    0.0000 O   0  0  0  0  0  0  0  0  0  0  0  0
   -1.7814   -2.1563    0.0000 C   0  0  0  0  0  0  0  0  0  0  0  0
   -2.8849   -1.1403    0.0000 O   0  0  0  0  0  0  0  0  0  0  0  0
   -4.3166   -1.5880    0.0000 C   0  0  0  0  0  0  0  0  0  0  0  0
   -5.4201   -0.5719    0.0000 C   0  0  0  0  0  0  0  0  0  0  0  0
   -6.8517   -1.0196    0.0000 O   0  0  0  0  0  0  0  0  0  0  0  0
   -4.6447   -3.0516    0.0000 C   0  0  0  0  0  0  0  0  0  0  0  0
   -6.0763   -3.4993    0.0000 O   0  0  0  0  0  0  0  0  0  0  0  0
   -3.5412   -4.0676    0.0000 C   0  0  0  0  0  0  0  0  0  0  0  0
   -3.8693   -5.5313    0.0000 N   0  0  0  0  0  0  0  0  0  0  0  0
   -2.1095   -3.6200    0.0000 C   0  0  0  0  0  0  0  0  0  0  0  0
   -1.0060   -4.6360    0.0000 O   0  0  0  0  0  0  0  0  0  0  0  0
  1  2  1  0
  2  3  1  0
  3  4  1  0
  4  5  1  6
  4  6  1  0
  6  7  2  0
  6  8  1  0
  9  8  1  6
  9 10  1  0
 10 11  1  0
 11 12  1  6
 11 13  1  0
 13 14  1  1
 15 14  1  6
 15 16  1  0
 16 17  1  0
 17 18  1  1
 18 19  1  0
 17 20  1  0
 20 21  1  6
 20 22  1  0
 22 23  1  1
 22 24  1  0
 24 25  1  6
 13 26  1  0
 26 27  1  6
 26 28  1  0
 28 29  1  1
 30 29  1  6
 30 31  1  0
 31 32  1  0
 32 33  1  1
 33 34  1  0
 32 35  1  0
 35 36  1  6
 35 37  1  0
 37 38  1  1
 37 39  1  0
 39 40  1  6
 28  9  1  0
 39 30  1  0
 24 15  1  0
M  END
>  <zinc_id>  (1) 
ZINC000008214483

>  <smiles>  (1) 
NCC[C@H](O)C(=O)N[C@@H]1C[C@H](N)[C@@H](O[C@H]2O[C@H](CN)[C@@H](O)[C@H](O)[C@H]2O)[C@H](O)[C@H]1O[C@H]1O[C@H](CO)[C@@H](O)[C@H](N)[C@H]1O

$$$$
