
     RDKit          3D

 24 26  0  0  0  0  0  0  0  0999 V2000
    7.4705   -0.6846   -0.4213 C   0  0  0  0  0  0  0  0  0  0  0  0
    6.4235   -0.0514   -0.5853 C   0  0  0  0  0  0  0  0  0  0  0  0
    6.3682    1.1177   -0.0581 O   0  0  0  0  0  0  0  0  0  0  0  0
    5.2259   -0.4073   -1.2838 N   0  0  0  0  0  0  0  0  0  0  0  0
    4.0804    0.4909   -1.3694 C   0  0  0  0  0  0  0  0  0  0  0  0
    3.7147    0.6851    0.2091 C   0  0  1  0  0  0  0  0  0  0  0  0
    2.2018    1.1767   -0.0522 C   0  0  0  0  0  0  0  0  0  0  0  0
    1.4325   -0.0224   -0.0031 N   0  0  0  0  0  0  0  0  0  0  0  0
    0.0128    0.0605    0.1151 C   0  0  0  0  0  0  0  0  0  0  0  0
   -0.5757    0.6101    1.2606 C   0  0  0  0  0  0  0  0  0  0  0  0
   -1.9165    0.7367    1.4485 C   0  0  0  0  0  0  0  0  0  0  0  0
   -2.7432    0.2846    0.4246 C   0  0  0  0  0  0  0  0  0  0  0  0
   -4.1528    0.4023    0.5709 N   0  0  0  0  0  0  0  0  0  0  0  0
   -4.8539    1.2002   -0.4131 C   0  0  0  0  0  0  0  0  0  0  0  0
   -6.1598    0.4796   -0.7414 C   0  0  0  0  0  0  0  0  0  0  0  0
   -6.9070    0.2495    0.4116 O   0  0  0  0  0  0  0  0  0  0  0  0
   -6.2921   -0.6046    1.2913 C   0  0  0  0  0  0  0  0  0  0  0  0
   -4.8696   -0.2263    1.6347 C   0  0  0  0  0  0  0  0  0  0  0  0
   -2.2466   -0.2625   -0.7202 C   0  0  0  0  0  0  0  0  0  0  0  0
   -3.0509   -0.7148   -1.7408 F   0  0  0  0  0  0  0  0  0  0  0  0
   -0.8680   -0.3640   -0.8527 C   0  0  0  0  0  0  0  0  0  0  0  0
    2.2847   -1.1458   -0.0835 C   0  0  0  0  0  0  0  0  0  0  0  0
    1.9776   -2.2419   -0.5880 O   0  0  0  0  0  0  0  0  0  0  0  0
    3.4435   -0.7682    0.4841 O   0  0  0  0  0  0  0  0  0  0  0  0
  1  2  1  0
  2  3  2  0
  2  4  1  0
  4  5  1  0
  6  5  1  6
  6  7  1  0
  7  8  1  0
  8  9  1  0
  9 10  2  0
 10 11  1  0
 11 12  2  0
 12 13  1  0
 13 14  1  0
 14 15  1  0
 15 16  1  0
 16 17  1  0
 17 18  1  0
 12 19  1  0
 19 20  1  0
 19 21  2  0
  8 22  1  0
 22 23  2  0
 22 24  1  0
 24  6  1  0
 21  9  1  0
 18 13  1  0
M  END
>  <zinc_id>  (1) 
ZINC000002008866

>  <smiles>  (1) 
CC(=O)NC[C@H]1CN(c2ccc(N3CCOCC3)c(F)c2)C(=O)O1

$$$$
