
     RDKit          3D

 15 14  0  0  0  0  0  0  0  0999 V2000
    4.2585    1.1028    1.5905 C   0  0  0  0  0  0  0  0  0  0  0  0
    3.8187   -0.2370    1.0210 C   0  0  0  0  0  0  0  0  0  0  0  0
    4.1322   -0.2695   -0.4401 C   0  0  0  0  0  0  0  0  0  0  0  0
    3.4481    0.8038   -1.2310 C   0  0  0  0  0  0  0  0  0  0  0  0
    1.9330    0.7298   -1.1470 C   0  0  0  0  0  0  0  0  0  0  0  0
    1.5124   -0.5962   -1.6820 C   0  0  0  0  0  0  0  0  0  0  0  0
    0.1427   -0.8400   -1.6817 O   0  0  0  0  0  0  0  0  0  0  0  0
   -0.6447   -0.8462   -0.5298 C   0  0  0  0  0  0  0  0  0  0  0  0
   -0.0362   -0.6139    0.5346 O   0  0  0  0  0  0  0  0  0  0  0  0
   -2.0822   -1.1189   -0.6741 C   0  0  0  0  0  0  0  0  0  0  0  0
   -2.9114   -1.0777    0.5393 C   0  0  0  0  0  0  0  0  0  0  0  0
   -2.9020    0.2446    1.1824 C   0  0  0  0  0  0  0  0  0  0  0  0
   -2.1223    0.4734    2.0799 O   0  0  0  0  0  0  0  0  0  0  0  0
   -3.8479    1.3437    0.7533 C   0  0  0  0  0  0  0  0  0  0  0  0
   -4.6991    0.9114   -0.3153 N   0  0  0  0  0  0  0  0  0  0  0  0
  1  2  1  0
  2  3  1  0
  3  4  1  0
  4  5  1  0
  5  6  1  0
  6  7  1  0
  7  8  1  0
  8  9  2  0
  8 10  1  0
 10 11  1  0
 11 12  1  0
 12 13  2  0
 12 14  1  0
 14 15  1  0
M  END
>  <zinc_id>  (1) 
ZINC000001554392

>  <smiles>  (1) 
CCCCCCOC(=O)CCC(=O)CN

$$$$
