
     RDKit          3D

 26 28  0  0  0  0  0  0  0  0999 V2000
   -5.7654    2.3139    0.4353 C   0  0  0  0  0  0  0  0  0  0  0  0
   -4.4706    2.5537   -0.6299 C   0  0  1  0  0  0  0  0  0  0  0  0
   -4.2107    3.9349    0.0835 O   0  0  0  0  0  0  0  0  0  0  0  0
   -3.3836    1.7484    0.4176 C   0  0  1  0  0  0  0  0  0  0  0  0
   -4.1634    0.3384    0.4295 C   0  0  0  0  0  0  0  0  0  0  0  0
   -5.3018   -0.0531    0.6709 O   0  0  0  0  0  0  0  0  0  0  0  0
   -2.9682   -0.3269    0.0379 N   0  0  0  0  0  0  0  0  0  0  0  0
   -1.9409   -1.2373   -0.1382 C   0  0  0  0  0  0  0  0  0  0  0  0
   -2.0685   -2.6800   -0.1131 C   0  0  0  0  0  0  0  0  0  0  0  0
   -1.0763   -3.4482   -0.1451 O   0  0  0  0  0  0  0  0  0  0  0  0
   -3.2828   -3.3761   -0.0576 O   0  0  0  0  0  0  0  0  0  0  0  0
   -0.7684   -0.6104   -0.2270 C   0  0  0  0  0  0  0  0  0  0  0  0
    0.7250   -1.5639   -0.4497 S   0  0  0  0  0  0  0  0  0  0  0  0
    1.8391   -0.9853    0.9414 C   0  0  2  0  0  0  0  0  0  0  0  0
    2.3453    0.3361    0.2458 C   0  0  0  0  0  0  0  0  0  0  0  0
    3.2289    0.5662    1.2920 N   0  0  0  0  0  0  0  0  0  0  0  0
    4.2607   -0.6043    1.2901 C   0  0  2  0  0  0  0  0  0  0  0  0
    4.9577   -0.2649   -0.0912 C   0  0  0  0  0  0  0  0  0  0  0  0
    4.5893   -0.7490   -1.1571 O   0  0  0  0  0  0  0  0  0  0  0  0
    6.0306    0.6764   -0.0537 N   0  0  0  0  0  0  0  0  0  0  0  0
    6.7403    1.0757   -1.2138 C   0  0  0  0  0  0  0  0  0  0  0  0
    6.3997    1.3876    1.2161 C   0  0  0  0  0  0  0  0  0  0  0  0
    3.1551   -1.7269    0.5903 C   0  0  0  0  0  0  0  0  0  0  0  0
   -0.9575    0.9261   -0.0385 C   0  0  2  0  0  0  0  0  0  0  0  0
   -1.4055    0.8270    1.5070 C   0  0  0  0  0  0  0  0  0  0  0  0
   -2.5081    0.9420   -0.7850 C   0  0  2  0  0  0  0  0  0  0  0  0
  2  1  1  1
  2  3  1  0
  2  4  1  0
  4  5  1  1
  5  6  2  0
  5  7  1  0
  7  8  1  0
  8  9  1  0
  9 10  2  0
  9 11  1  0
  8 12  2  0
 12 13  1  0
 14 13  1  6
 14 15  1  0
 15 16  1  0
 16 17  1  0
 17 18  1  6
 18 19  2  0
 18 20  1  0
 20 21  1  0
 20 22  1  0
 17 23  1  0
 12 24  1  0
 24 25  1  1
 24 26  1  0
 26  4  1  0
 26  7  1  1
 23 14  1  0
M  END
>  <zinc_id>  (1) 
ZINC000003808779

>  <smiles>  (1) 
C[C@@H](O)[C@H]1C(=O)N2C(C(=O)O)=C(S[C@@H]3CN[C@H](C(=O)N(C)C)C3)[C@H](C)[C@H]12

$$$$
