
     RDKit          3D

 35 37  0  0  0  0  0  0  0  0999 V2000
   -0.2187   -4.5506   -2.8312 C   0  0  0  0  0  0  0  0  0  0  0  0
   -0.1023   -3.9256   -1.4273 C   0  0  0  0  0  0  0  0  0  0  0  0
   -1.3723   -4.2087   -0.7018 C   0  0  0  0  0  0  0  0  0  0  0  0
    0.0486   -2.4826   -1.6457 N   0  0  0  0  0  0  0  0  0  0  0  0
    1.1211   -1.9307   -2.4088 C   0  0  0  0  0  0  0  0  0  0  0  0
    2.4558   -2.0849   -1.8095 C   0  0  0  0  0  0  0  0  0  0  0  0
    2.6703   -1.4432   -0.4722 C   0  0  0  0  0  0  0  0  0  0  0  0
    2.4551    0.0601   -0.5748 C   0  0  0  0  0  0  0  0  0  0  0  0
    2.6553    0.6757    0.6606 O   0  0  0  0  0  0  0  0  0  0  0  0
    3.9511    0.4336    1.0929 C   0  0  0  0  0  0  0  0  0  0  0  0
    4.9387    0.9597    0.1228 C   0  0  0  0  0  0  0  0  0  0  0  0
    6.1692    0.7916    0.4087 O   0  0  0  0  0  0  0  0  0  0  0  0
    4.5782    1.6247   -1.0799 N   0  0  0  0  0  0  0  0  0  0  0  0
    5.8452    2.1805   -2.1115 S   0  0  0  0  0  0  0  0  0  0  0  0
    7.2566    1.1201   -2.0031 C   0  0  0  0  0  0  0  0  0  0  0  0
    5.3776    2.1964   -3.5433 O   0  0  0  0  0  0  0  0  0  0  0  0
    6.2451    3.5865   -1.7378 O   0  0  0  0  0  0  0  0  0  0  0  0
   -0.9645   -1.6523   -1.0719 C   0  0  0  0  0  0  0  0  0  0  0  0
   -2.0291   -1.2582   -1.8931 C   0  0  0  0  0  0  0  0  0  0  0  0
   -3.0088   -0.4898   -1.4010 N   0  0  0  0  0  0  0  0  0  0  0  0
   -2.9993   -0.0771   -0.1140 C   0  0  0  0  0  0  0  0  0  0  0  0
   -4.1166    0.7665    0.3351 C   0  0  0  0  0  0  0  0  0  0  0  0
   -3.7982    2.0411    0.7601 C   0  0  0  0  0  0  0  0  0  0  0  0
   -4.8417    2.8673    1.1881 C   0  0  0  0  0  0  0  0  0  0  0  0
   -6.1473    2.4407    1.1920 C   0  0  0  0  0  0  0  0  0  0  0  0
   -6.4549    1.1680    0.7663 C   0  0  0  0  0  0  0  0  0  0  0  0
   -5.4197    0.3539    0.3437 C   0  0  0  0  0  0  0  0  0  0  0  0
   -1.9601   -0.4551    0.7093 C   0  0  0  0  0  0  0  0  0  0  0  0
   -1.9410   -0.0195    2.1007 C   0  0  0  0  0  0  0  0  0  0  0  0
   -0.9287    0.7937    2.5688 C   0  0  0  0  0  0  0  0  0  0  0  0
   -0.8657    1.2315    3.8869 C   0  0  0  0  0  0  0  0  0  0  0  0
   -1.8380    0.8560    4.7846 C   0  0  0  0  0  0  0  0  0  0  0  0
   -2.8547    0.0457    4.3352 C   0  0  0  0  0  0  0  0  0  0  0  0
   -2.9107   -0.3892    3.0126 C   0  0  0  0  0  0  0  0  0  0  0  0
   -0.9956   -1.2256    0.1814 N   0  0  0  0  0  0  0  0  0  0  0  0
  1  2  1  0
  2  3  1  0
  2  4  1  0
  4  5  1  0
  5  6  1  0
  6  7  1  0
  7  8  1  0
  8  9  1  0
  9 10  1  0
 10 11  1  0
 11 12  2  0
 11 13  1  0
 13 14  1  0
 14 15  1  0
 14 16  2  0
 14 17  2  0
  4 18  1  0
 18 19  2  0
 19 20  1  0
 20 21  2  0
 21 22  1  0
 22 23  2  0
 23 24  1  0
 24 25  2  0
 25 26  1  0
 26 27  2  0
 21 28  1  0
 28 29  1  0
 29 30  2  0
 30 31  1  0
 31 32  2  0
 32 33  1  0
 33 34  2  0
 28 35  2  0
 35 18  1  0
 27 22  1  0
 34 29  1  0
M  END
>  <zinc_id>  (1) 
ZINC000003990451

>  <smiles>  (1) 
CC(C)N(CCCCOCC(=O)NS(C)(=O)=O)c1cnc(-c2ccccc2)c(-c2ccccc2)n1

$$$$
