
     RDKit          3D

 18 19  0  0  0  0  0  0  0  0999 V2000
   -3.6712   -0.6457   -2.0954 C   0  0  0  0  0  0  0  0  0  0  0  0
   -3.3917   -1.1367   -0.5437 C   0  0  2  0  0  0  0  0  0  0  0  0
   -3.9514    0.1799    0.1313 C   0  0  0  0  0  0  0  0  0  0  0  0
   -4.7449    0.9040   -0.4407 O   0  0  0  0  0  0  0  0  0  0  0  0
   -3.4792    0.4301    1.3834 O   0  0  0  0  0  0  0  0  0  0  0  0
   -1.8416   -0.7483   -0.4700 C   0  0  0  0  0  0  0  0  0  0  0  0
   -1.1130   -0.4526   -1.5218 C   0  0  0  0  0  0  0  0  0  0  0  0
    0.2210   -0.1319   -1.3582 C   0  0  0  0  0  0  0  0  0  0  0  0
    0.8412   -0.1045   -0.1309 C   0  0  0  0  0  0  0  0  0  0  0  0
    2.2549    0.2373    0.0211 C   0  0  0  0  0  0  0  0  0  0  0  0
    2.8513    1.3018   -0.6235 C   0  0  0  0  0  0  0  0  0  0  0  0
    4.1874    1.6089   -0.4675 C   0  0  0  0  0  0  0  0  0  0  0  0
    4.9914    0.8525    0.3513 C   0  0  0  0  0  0  0  0  0  0  0  0
    4.4178   -0.2136    1.0038 C   0  0  0  0  0  0  0  0  0  0  0  0
    3.0787   -0.5073    0.8366 C   0  0  0  0  0  0  0  0  0  0  0  0
    0.0368   -0.4217    0.9424 C   0  0  0  0  0  0  0  0  0  0  0  0
    0.6121   -0.4064    2.1772 F   0  0  0  0  0  0  0  0  0  0  0  0
   -1.2997   -0.7457    0.8046 C   0  0  0  0  0  0  0  0  0  0  0  0
  2  1  1  6
  2  3  1  0
  3  4  2  0
  3  5  1  0
  2  6  1  0
  6  7  2  0
  7  8  1  0
  8  9  2  0
  9 10  1  0
 10 11  2  0
 11 12  1  0
 12 13  2  0
 13 14  1  0
 14 15  2  0
  9 16  1  0
 16 17  1  0
 16 18  2  0
 18  6  1  0
 15 10  1  0
M  END
>  <zinc_id>  (1) 
ZINC000000000323

>  <smiles>  (1) 
C[C@H](C(=O)O)c1ccc(-c2ccccc2)c(F)c1

$$$$
