
     RDKit          3D

 26 28  0  0  0  0  0  0  0  0999 V2000
    2.9244    0.2361   -2.0891 C   0  0  0  0  0  0  0  0  0  0  0  0
    2.9950    0.1794   -1.7920 C   0  0  0  0  0  0  0  0  0  0  0  0
    2.5370    1.3149   -1.0345 C   0  0  0  0  0  0  0  0  0  0  0  0
    4.3778   -0.6369   -1.1476 C   0  0  1  0  0  0  0  0  0  0  0  0
    4.6568    0.1524    0.1847 C   0  0  0  0  0  0  0  0  0  0  0  0
    5.7155   -0.2246    0.8492 C   0  0  0  0  0  0  0  0  0  0  0  0
    6.6942   -1.5291    0.2187 Cl  0  0  0  0  0  0  0  0  0  0  0  0
    6.1047    0.6015    2.3496 Cl  0  0  0  0  0  0  0  0  0  0  0  0
    2.8398   -1.3566   -1.0090 C   0  0  1  0  0  0  0  0  0  0  0  0
    2.2663   -0.9861    0.4003 C   0  0  0  0  0  0  0  0  0  0  0  0
    2.9211   -1.3716    1.3621 O   0  0  0  0  0  0  0  0  0  0  0  0
    1.0986   -0.2744    0.4395 O   0  0  0  0  0  0  0  0  0  0  0  0
    0.5345    0.0866    1.6853 C   0  0  0  0  0  0  0  0  0  0  0  0
   -0.7144    0.8437    1.4232 C   0  0  0  0  0  0  0  0  0  0  0  0
   -0.7463    2.2162    1.2763 C   0  0  0  0  0  0  0  0  0  0  0  0
   -1.9173    2.8799    1.0354 C   0  0  0  0  0  0  0  0  0  0  0  0
   -3.1048    2.1904    0.9323 C   0  0  0  0  0  0  0  0  0  0  0  0
   -3.0476    0.8183    1.0829 C   0  0  0  0  0  0  0  0  0  0  0  0
   -4.2410    0.1007    0.9818 O   0  0  0  0  0  0  0  0  0  0  0  0
   -4.6375   -0.3691   -0.2725 C   0  0  0  0  0  0  0  0  0  0  0  0
   -4.2162   -1.6146   -0.6517 C   0  0  0  0  0  0  0  0  0  0  0  0
   -4.5781   -2.1383   -1.8896 C   0  0  0  0  0  0  0  0  0  0  0  0
   -5.3670   -1.4319   -2.7747 C   0  0  0  0  0  0  0  0  0  0  0  0
   -5.7845   -0.1694   -2.3712 C   0  0  0  0  0  0  0  0  0  0  0  0
   -5.4204    0.3470   -1.1360 C   0  0  0  0  0  0  0  0  0  0  0  0
   -1.8905    0.1356    1.3237 C   0  0  0  0  0  0  0  0  0  0  0  0
  1  2  1  0
  2  3  1  0
  4  2  1  6
  4  5  1  0
  5  6  2  3
  6  7  1  0
  6  8  1  0
  4  9  1  0
  9 10  1  1
 10 11  2  0
 10 12  1  0
 12 13  1  0
 13 14  1  0
 14 15  2  0
 15 16  1  0
 16 17  2  0
 17 18  1  0
 18 19  1  0
 19 20  1  0
 20 21  2  0
 21 22  1  0
 22 23  2  0
 23 24  1  0
 24 25  2  0
 18 26  2  0
  9  2  1  0
 26 14  1  0
 25 20  1  0
M  END
>  <zinc_id>  (1) 
ZINC000001850376

>  <smiles>  (1) 
CC1(C)[C@@H](C=C(Cl)Cl)[C@H]1C(=O)OCc1cccc(Oc2ccccc2)c1

$$$$
