
     RDKit          3D

 22 24  0  0  0  0  0  0  0  0999 V2000
   -1.2683    3.9593    0.3788 C   0  0  0  0  0  0  0  0  0  0  0  0
   -2.4490    3.3843   -0.3618 C   0  0  0  0  0  0  0  0  0  0  0  0
   -3.1497    2.4375    0.3695 O   0  0  0  0  0  0  0  0  0  0  0  0
   -2.3992    1.3435    0.7384 C   0  0  0  0  0  0  0  0  0  0  0  0
   -1.8711    0.6349   -0.4882 C   0  0  0  0  0  0  0  0  0  0  0  0
   -1.0838   -0.5215   -0.1300 N   0  0  0  0  0  0  0  0  0  0  0  0
   -1.5686   -1.7699    0.0360 C   0  0  0  0  0  0  0  0  0  0  0  0
   -2.8470   -2.2677   -0.0765 C   0  0  0  0  0  0  0  0  0  0  0  0
   -3.0559   -3.6144    0.1548 C   0  0  0  0  0  0  0  0  0  0  0  0
   -2.0058   -4.4725    0.4973 C   0  0  0  0  0  0  0  0  0  0  0  0
   -0.7590   -3.9293    0.5957 C   0  0  0  0  0  0  0  0  0  0  0  0
   -0.5108   -2.5890    0.3723 C   0  0  0  0  0  0  0  0  0  0  0  0
    0.6065   -1.8211    0.4053 N   0  0  0  0  0  0  0  0  0  0  0  0
    0.2296   -0.5555    0.0936 C   0  0  0  0  0  0  0  0  0  0  0  0
    1.1807    0.5061    0.0388 N   0  0  0  0  0  0  0  0  0  0  0  0
    1.7905    0.6458   -1.2707 C   0  0  0  0  0  0  0  0  0  0  0  0
    3.1784    1.2352   -1.1864 C   0  0  0  0  0  0  0  0  0  0  0  0
    3.2744    2.3243   -0.1466 C   0  0  0  0  0  0  0  0  0  0  0  0
    3.7332    1.7445    1.0824 N   0  0  0  0  0  0  0  0  0  0  0  0
    4.9320    0.9725    0.9706 C   0  0  0  0  0  0  0  0  0  0  0  0
    2.7073    1.1404    1.8718 C   0  0  0  0  0  0  0  0  0  0  0  0
    1.3357    1.2124    1.2839 C   0  0  0  0  0  0  0  0  0  0  0  0
  1  2  1  0
  2  3  1  0
  3  4  1  0
  4  5  1  0
  5  6  1  0
  6  7  1  0
  7  8  2  0
  8  9  1  0
  9 10  2  0
 10 11  1  0
 11 12  2  0
 12 13  1  0
 13 14  2  0
 14 15  1  0
 15 16  1  0
 16 17  1  0
 17 18  1  0
 18 19  1  0
 19 20  1  0
 19 21  1  0
 21 22  1  0
 14  6  1  0
 22 15  1  0
 12  7  1  0
M  END
>  <zinc_id>  (1) 
ZINC000001530912

>  <smiles>  (1) 
CCOCCn1c(N2CCCN(C)CC2)nc2ccccc21

$$$$
