
     RDKit          3D

 22 24  0  0  0  0  0  0  0  0999 V2000
    5.1480   -0.0603    0.8365 C   0  0  0  0  0  0  0  0  0  0  0  0
    3.8277   -0.2737    0.2544 C   0  0  0  0  0  0  0  0  0  0  0  0
    3.7432   -0.2280   -1.0044 O   0  0  0  0  0  0  0  0  0  0  0  0
    2.7006   -0.5173    1.0225 O   0  0  0  0  0  0  0  0  0  0  0  0
    1.4153   -0.6985    0.1770 C   0  0  1  0  0  0  0  0  0  0  0  0
    0.4415   -1.0575    1.5109 C   0  0  0  0  0  0  0  0  0  0  0  0
   -0.7819   -1.6133    0.8679 C   0  0  0  0  0  0  0  0  0  0  0  0
   -1.0415   -2.9038    1.2630 C   0  0  0  0  0  0  0  0  0  0  0  0
   -2.1643   -3.5735    0.7475 C   0  0  0  0  0  0  0  0  0  0  0  0
   -2.9959   -2.9545   -0.1393 C   0  0  0  0  0  0  0  0  0  0  0  0
   -2.7228   -1.6396   -0.5356 C   0  0  0  0  0  0  0  0  0  0  0  0
   -1.6281   -0.9863   -0.0331 C   0  0  0  0  0  0  0  0  0  0  0  0
   -1.4586    0.3451   -0.5082 N   0  0  0  0  0  0  0  0  0  0  0  0
   -2.4661    0.9053   -1.3178 C   0  0  0  0  0  0  0  0  0  0  0  0
   -2.4264    2.1955   -1.8526 N   0  0  0  0  0  0  0  0  0  0  0  0
   -3.4650    0.1758   -1.5658 O   0  0  0  0  0  0  0  0  0  0  0  0
   -0.3345    1.2125   -0.2300 C   0  0  0  0  0  0  0  0  0  0  0  0
   -0.6468    2.5504   -0.3000 C   0  0  0  0  0  0  0  0  0  0  0  0
    0.3374    3.4936   -0.0222 C   0  0  0  0  0  0  0  0  0  0  0  0
    1.6254    3.0600    0.3228 C   0  0  0  0  0  0  0  0  0  0  0  0
    1.9382    1.7114    0.3920 C   0  0  0  0  0  0  0  0  0  0  0  0
    0.9546    0.8566    0.1144 C   0  0  0  0  0  0  0  0  0  0  0  0
  1  2  1  0
  2  3  2  0
  2  4  1  0
  5  4  1  1
  5  6  1  0
  6  7  1  0
  7  8  2  0
  8  9  1  0
  9 10  2  0
 10 11  1  0
 11 12  2  0
 12 13  1  0
 13 14  1  0
 14 15  1  0
 14 16  2  0
 13 17  1  0
 17 18  2  0
 18 19  1  0
 19 20  2  0
 20 21  1  0
 21 22  2  0
 22  5  1  0
 12  7  1  0
 22 17  1  0
M  END
>  <zinc_id>  (1) 
ZINC000000007295

>  <smiles>  (1) 
CC(=O)O[C@H]1Cc2ccccc2N(C(N)=O)c2ccccc21

$$$$
