
     RDKit          3D

 19 21  0  0  0  0  0  0  0  0999 V2000
    4.9010    1.1126    0.7493 O   0  0  0  0  0  0  0  0  0  0  0  0
    4.0820    0.4566    0.2542 C   0  0  0  0  0  0  0  0  0  0  0  0
    4.0859   -0.8814   -0.0488 O   0  0  0  0  0  0  0  0  0  0  0  0
    2.7551    1.3105   -0.1101 C   0  0  1  0  0  0  0  0  0  0  0  0
    2.4902    0.5626   -1.5552 C   0  0  0  0  0  0  0  0  0  0  0  0
    0.9734    0.4758   -1.4482 C   0  0  0  0  0  0  0  0  0  0  0  0
    0.7817    0.0206   -0.0757 N   0  0  0  0  0  0  0  0  0  0  0  0
   -0.0975   -0.7292    0.6152 C   0  0  0  0  0  0  0  0  0  0  0  0
   -1.3300   -1.3560    0.0986 C   0  0  0  0  0  0  0  0  0  0  0  0
   -1.3483   -2.5955    0.0104 O   0  0  0  0  0  0  0  0  0  0  0  0
   -2.4240   -0.4890   -0.2639 C   0  0  0  0  0  0  0  0  0  0  0  0
   -2.5443    0.7640    0.2962 C   0  0  0  0  0  0  0  0  0  0  0  0
   -3.6146    1.5997   -0.0540 C   0  0  0  0  0  0  0  0  0  0  0  0
   -4.5485    1.1571   -0.9641 C   0  0  0  0  0  0  0  0  0  0  0  0
   -4.4163   -0.0936   -1.5132 C   0  0  0  0  0  0  0  0  0  0  0  0
   -3.3738   -0.9030   -1.1701 C   0  0  0  0  0  0  0  0  0  0  0  0
    0.3471   -0.7903    1.9154 C   0  0  0  0  0  0  0  0  0  0  0  0
    1.5373   -0.0463    1.9931 C   0  0  0  0  0  0  0  0  0  0  0  0
    1.7435    0.4248    0.7232 C   0  0  0  0  0  0  0  0  0  0  0  0
  1  2  2  0
  2  3  1  0
  4  2  1  1
  4  5  1  0
  5  6  1  0
  6  7  1  0
  7  8  1  0
  8  9  1  0
  9 10  2  0
  9 11  1  0
 11 12  2  0
 12 13  1  0
 13 14  2  0
 14 15  1  0
 15 16  2  0
  8 17  2  0
 17 18  1  0
 18 19  2  0
 19  4  1  0
 19  7  1  0
 16 11  1  0
M  END
>  <zinc_id>  (1) 
ZINC000000011012

>  <smiles>  (1) 
O=C(c1ccccc1)c1ccc2n1CC[C@@H]2C(=O)O

$$$$
