
     RDKit          3D

 17 17  0  0  0  0  0  0  0  0999 V2000
    4.9723    0.1231   -1.5219 C   0  0  0  0  0  0  0  0  0  0  0  0
    3.5276    0.2908   -1.0751 C   0  0  0  0  0  0  0  0  0  0  0  0
    3.1207   -0.6859   -0.1203 N   0  0  0  0  0  0  0  0  0  0  0  0
    3.7164   -0.6075    1.1555 C   0  0  0  0  0  0  0  0  0  0  0  0
    3.3067    0.6160    1.9511 C   0  0  0  0  0  0  0  0  0  0  0  0
    1.8929   -1.3284   -0.2939 C   0  0  0  0  0  0  0  0  0  0  0  0
    0.6866   -0.5002   -0.1216 C   0  0  0  0  0  0  0  0  0  0  0  0
    0.7266    0.7218    0.1582 O   0  0  0  0  0  0  0  0  0  0  0  0
   -0.6347   -1.0504   -0.2653 N   0  0  0  0  0  0  0  0  0  0  0  0
   -1.8003   -0.2712   -0.1070 C   0  0  0  0  0  0  0  0  0  0  0  0
   -2.4024    0.3521   -1.1732 C   0  0  0  0  0  0  0  0  0  0  0  0
   -1.8159    0.2087   -2.5235 C   0  0  0  0  0  0  0  0  0  0  0  0
   -3.5560    1.1160   -1.0066 C   0  0  0  0  0  0  0  0  0  0  0  0
   -4.1175    1.2634    0.2333 C   0  0  0  0  0  0  0  0  0  0  0  0
   -3.5288    0.6489    1.3045 C   0  0  0  0  0  0  0  0  0  0  0  0
   -2.3749   -0.1135    1.1289 C   0  0  0  0  0  0  0  0  0  0  0  0
   -1.7193   -0.7836    2.2771 C   0  0  0  0  0  0  0  0  0  0  0  0
  1  2  1  0
  2  3  1  0
  3  4  1  0
  4  5  1  0
  3  6  1  0
  6  7  1  0
  7  8  2  0
  7  9  1  0
  9 10  1  0
 10 11  2  0
 11 12  1  0
 11 13  1  0
 13 14  2  0
 14 15  1  0
 15 16  2  0
 16 17  1  0
 16 10  1  0
M  END
>  <zinc_id>  (1) 
ZINC000000020237

>  <smiles>  (1) 
CCN(CC)CC(=O)Nc1c(C)cccc1C

$$$$
