
     RDKit          3D

 17 18  0  0  0  0  0  0  0  0999 V2000
    4.3992    2.0994   -1.6386 C   0  0  0  0  0  0  0  0  0  0  0  0
    3.3177    1.3842   -0.8786 C   0  0  0  0  0  0  0  0  0  0  0  0
    3.0201    0.0515   -1.0796 C   0  0  0  0  0  0  0  0  0  0  0  0
    1.9926   -0.2476   -0.2202 C   0  0  0  0  0  0  0  0  0  0  0  0
    1.3727   -1.5093   -0.0920 N   0  0  0  0  0  0  0  0  0  0  0  0
    0.0884   -1.8083    1.0084 S   0  0  0  0  0  0  0  0  0  0  0  0
    0.5338   -1.4190    2.3909 O   0  0  0  0  0  0  0  0  0  0  0  0
   -0.2979   -3.2515    1.0438 O   0  0  0  0  0  0  0  0  0  0  0  0
   -1.2881   -0.7906    0.6026 C   0  0  0  0  0  0  0  0  0  0  0  0
   -1.3906    0.4531    1.1784 C   0  0  0  0  0  0  0  0  0  0  0  0
   -2.4552    1.2776    0.8840 C   0  0  0  0  0  0  0  0  0  0  0  0
   -3.4352    0.8630    0.0040 C   0  0  0  0  0  0  0  0  0  0  0  0
   -4.5142    1.7617   -0.2617 N   0  0  0  0  0  0  0  0  0  0  0  0
   -3.3250   -0.3760   -0.5640 C   0  0  0  0  0  0  0  0  0  0  0  0
   -2.2652   -1.2109   -0.2783 C   0  0  0  0  0  0  0  0  0  0  0  0
    1.7215    0.8823    0.4430 N   0  0  0  0  0  0  0  0  0  0  0  0
    2.5253    1.8406    0.0322 O   0  0  0  0  0  0  0  0  0  0  0  0
  1  2  1  0
  2  3  2  0
  3  4  1  0
  4  5  1  0
  5  6  1  0
  6  7  2  0
  6  8  2  0
  6  9  1  0
  9 10  2  0
 10 11  1  0
 11 12  2  0
 12 13  1  0
 12 14  1  0
 14 15  2  0
  4 16  2  0
 16 17  1  0
 17  2  1  0
 15  9  1  0
M  END
>  <zinc_id>  (1) 
ZINC000000089763

>  <smiles>  (1) 
Cc1cc(NS(=O)(=O)c2ccc(N)cc2)no1

$$$$
