
     RDKit          2D

 13 12  0  0  0  0  0  0  0  0999 V2000
   -2.9680   -1.7814    0.0000 O   0  0  0  0  0  0  0  0  0  0  0  0
   -2.9934   -0.2816    0.0000 C   0  0  0  0  0  0  0  0  0  0  0  0
   -4.3050    0.4462    0.0000 O   0  0  0  0  0  0  0  0  0  0  0  0
   -1.7073    0.4903    0.0000 C   0  0  0  0  0  0  0  0  0  0  0  0
   -1.7328    1.9901    0.0000 O   0  0  0  0  0  0  0  0  0  0  0  0
   -0.3957   -0.2375    0.0000 C   0  0  0  0  0  0  0  0  0  0  0  0
   -0.3703   -1.7373    0.0000 O   0  0  0  0  0  0  0  0  0  0  0  0
    0.8904    0.5344    0.0000 C   0  0  0  0  0  0  0  0  0  0  0  0
    0.8649    2.0342    0.0000 O   0  0  0  0  0  0  0  0  0  0  0  0
    2.2020   -0.1934    0.0000 C   0  0  0  0  0  0  0  0  0  0  0  0
    2.2274   -1.6932    0.0000 O   0  0  0  0  0  0  0  0  0  0  0  0
    3.4881    0.5785    0.0000 C   0  0  0  0  0  0  0  0  0  0  0  0
    4.7997   -0.1493    0.0000 O   0  0  0  0  0  0  0  0  0  0  0  0
  1  2  2  0
  2  3  1  0
  2  4  1  0
  4  5  1  6
  4  6  1  0
  6  7  1  6
  6  8  1  0
  8  9  1  6
  8 10  1  0
 10 11  1  1
 10 12  1  0
 12 13  1  0
M  END
>  <zinc_id>  (1) 
ZINC000001531008

>  <smiles>  (1) 
O=C(O)[C@H](O)[C@@H](O)[C@H](O)[C@H](O)CO

$$$$
