
     RDKit          3D

 19 21  0  0  0  0  0  0  0  0999 V2000
    3.1829    0.7844   -2.4345 N   0  0  0  0  0  0  0  0  0  0  0  0
    2.6123    0.7219   -1.1583 C   0  0  0  0  0  0  0  0  0  0  0  0
    3.0184    1.4089   -0.0759 N   0  0  0  0  0  0  0  0  0  0  0  0
    2.3651    1.2428    1.0926 C   0  0  0  0  0  0  0  0  0  0  0  0
    2.9475    2.1770    2.4873 Cl  0  0  0  0  0  0  0  0  0  0  0  0
    1.3131    0.4085    1.2170 N   0  0  0  0  0  0  0  0  0  0  0  0
    0.8683   -0.2991    0.1698 C   0  0  0  0  0  0  0  0  0  0  0  0
    1.5339   -0.1411   -1.0547 C   0  0  0  0  0  0  0  0  0  0  0  0
    0.8650   -0.9666   -1.8811 N   0  0  0  0  0  0  0  0  0  0  0  0
   -0.1470   -1.5857   -1.1882 C   0  0  0  0  0  0  0  0  0  0  0  0
   -0.1282   -1.1621    0.0701 N   0  0  0  0  0  0  0  0  0  0  0  0
   -1.0197   -1.5680    1.2121 C   0  0  2  0  0  0  0  0  0  0  0  0
   -2.2730   -2.2432    0.4643 C   0  0  0  0  0  0  0  0  0  0  0  0
   -3.2036   -0.9176    0.1939 C   0  0  2  0  0  0  0  0  0  0  0  0
   -3.0687   -0.9892   -1.3051 O   0  0  0  0  0  0  0  0  0  0  0  0
   -1.7516    0.0963    0.3373 C   0  0  1  0  0  0  0  0  0  0  0  0
   -2.6521    1.4331    0.6982 C   0  0  0  0  0  0  0  0  0  0  0  0
   -2.8409    1.9620   -0.6021 O   0  0  0  0  0  0  0  0  0  0  0  0
   -1.6219   -0.3622    1.7574 O   0  0  0  0  0  0  0  0  0  0  0  0
  1  2  1  0
  2  3  2  0
  3  4  1  0
  4  5  1  0
  4  6  2  0
  6  7  1  0
  7  8  2  0
  8  9  1  0
  9 10  2  0
 10 11  1  0
 12 11  1  6
 12 13  1  0
 13 14  1  0
 14 15  1  6
 14 16  1  0
 16 17  1  1
 17 18  1  0
 16 19  1  0
  8  2  1  0
 19 12  1  0
 11  7  1  0
M  END
>  <zinc_id>  (1) 
ZINC000003798064

>  <smiles>  (1) 
Nc1nc(Cl)nc2c1ncn2[C@H]1C[C@H](O)[C@@H](CO)O1

$$$$
