
     RDKit          2D

  8  8  0  0  0  0  0  0  0  0999 V2000
    2.8515   -0.9330    0.0000 C   0  0  0  0  0  0  0  0  0  0  0  0
    1.7267    0.0594    0.0000 C   0  0  0  0  0  0  0  0  0  0  0  0
    1.2488    1.4812    0.0000 O   0  0  0  0  0  0  0  0  0  0  0  0
    0.2564    0.3564    0.0000 C   0  0  0  0  0  0  0  0  0  0  0  0
   -1.1654   -0.1215    0.0000 P   0  0  0  0  0  0  0  0  0  0  0  0
   -2.5872   -0.5995    0.0000 O   0  0  0  0  0  0  0  0  0  0  0  0
   -1.6433    1.3003    0.0000 O   0  0  0  0  0  0  0  0  0  0  0  0
   -0.6875   -1.5433    0.0000 O   0  0  0  0  0  0  0  0  0  0  0  0
  2  1  1  1
  2  3  1  0
  3  4  1  0
  4  5  1  1
  5  6  2  0
  5  7  1  0
  5  8  1  0
  4  2  1  0
M  END
>  <zinc_id>  (1) 
ZINC000001530427

>  <smiles>  (1) 
C[C@@H]1O[C@@H]1P(=O)(O)O

$$$$
