
     RDKit          3D

 16 16  0  0  0  0  0  0  0  0999 V2000
    4.6842    1.3156   -0.3591 C   0  0  0  0  0  0  0  0  0  0  0  0
    3.6464    1.0353    0.5819 N   0  0  0  0  0  0  0  0  0  0  0  0
    3.8176    1.4868    1.9489 C   0  0  0  0  0  0  0  0  0  0  0  0
    2.4456    0.3277    0.2309 C   0  0  0  0  0  0  0  0  0  0  0  0
    2.2383   -0.0886   -0.9348 O   0  0  0  0  0  0  0  0  0  0  0  0
    1.4670    0.0799    1.1804 O   0  0  0  0  0  0  0  0  0  0  0  0
    0.3249   -0.5986    0.8259 C   0  0  0  0  0  0  0  0  0  0  0  0
    0.1767   -1.9554    0.8844 C   0  0  0  0  0  0  0  0  0  0  0  0
   -1.0255   -2.5142    0.4983 C   0  0  0  0  0  0  0  0  0  0  0  0
   -2.0863   -1.7467    0.0539 C   0  0  0  0  0  0  0  0  0  0  0  0
   -1.9478   -0.3841   -0.0086 C   0  0  0  0  0  0  0  0  0  0  0  0
   -2.9823    0.4893   -0.4522 N   0  0  0  0  0  0  0  0  0  0  0  0
   -2.6618    0.9924   -1.7626 C   0  0  0  0  0  0  0  0  0  0  0  0
   -3.1004    1.6031    0.4868 C   0  0  0  0  0  0  0  0  0  0  0  0
   -4.2517   -0.2093   -0.4541 C   0  0  0  0  0  0  0  0  0  0  0  0
   -0.7450    0.1667    0.3783 C   0  0  0  0  0  0  0  0  0  0  0  0
  1  2  1  0
  2  3  1  0
  2  4  1  0
  4  5  2  0
  4  6  1  0
  6  7  1  0
  7  8  2  0
  8  9  1  0
  9 10  2  0
 10 11  1  0
 11 12  1  0
 12 13  1  0
 12 14  1  0
 12 15  1  0
 11 16  2  0
 16  7  1  0
M  CHG  1  12   1
M  END
>  <zinc_id>  (1) 
ZINC000000001792

>  <smiles>  (1) 
CN(C)C(=O)Oc1cccc([N+](C)(C)C)c1

$$$$
