
     RDKit          3D

 26 28  0  0  0  0  0  0  0  0999 V2000
   -4.5028    0.0334    1.2752 C   0  0  0  0  0  0  0  0  0  0  0  0
   -4.0632    0.3315    0.9396 C   0  0  0  0  0  0  0  0  0  0  0  0
   -3.1250    1.3092    1.5493 C   0  0  0  0  0  0  0  0  0  0  0  0
   -3.3598   -0.7304   -0.2217 C   0  0  2  0  0  0  0  0  0  0  0  0
   -1.8381   -0.3651   -0.0974 C   0  0  0  0  0  0  0  0  0  0  0  0
   -1.3383    0.0251   -1.1432 O   0  0  0  0  0  0  0  0  0  0  0  0
   -1.1742   -0.4848    1.0780 O   0  0  0  0  0  0  0  0  0  0  0  0
    0.1723   -0.1868    1.2726 C   0  0  0  0  0  0  0  0  0  0  0  0
    0.9811   -1.0683    0.3993 C   0  0  0  0  0  0  0  0  0  0  0  0
    0.5095   -2.2255   -0.1951 C   0  0  0  0  0  0  0  0  0  0  0  0
    1.3328   -2.9889   -0.9956 C   0  0  0  0  0  0  0  0  0  0  0  0
    2.6156   -2.5658   -1.1780 C   0  0  0  0  0  0  0  0  0  0  0  0
    3.1361   -1.4013   -0.5964 C   0  0  0  0  0  0  0  0  0  0  0  0
    4.4556   -1.0448   -0.8360 O   0  0  0  0  0  0  0  0  0  0  0  0
    5.0115    0.0749   -0.2966 C   0  0  0  0  0  0  0  0  0  0  0  0
    6.3512    0.3257   -0.6132 C   0  0  0  0  0  0  0  0  0  0  0  0
    6.9767    1.4264   -0.1114 C   0  0  0  0  0  0  0  0  0  0  0  0
    6.3335    2.3143    0.7063 C   0  0  0  0  0  0  0  0  0  0  0  0
    5.0118    2.0711    1.0214 C   0  0  0  0  0  0  0  0  0  0  0  0
    4.3726    0.9736    0.5267 C   0  0  0  0  0  0  0  0  0  0  0  0
    2.2821   -0.6823    0.1859 C   0  0  0  0  0  0  0  0  0  0  0  0
   -3.9603    0.8041   -0.6977 C   0  0  1  0  0  0  0  0  0  0  0  0
   -5.3840    0.3253   -1.1699 C   0  0  0  0  0  0  0  0  0  0  0  0
   -6.3927    0.9691   -0.6439 C   0  0  0  0  0  0  0  0  0  0  0  0
   -8.0213    0.4350   -1.1598 Cl  0  0  0  0  0  0  0  0  0  0  0  0
   -6.3828    2.3254    0.4331 Cl  0  0  0  0  0  0  0  0  0  0  0  0
  1  2  1  0
  2  3  1  0
  2  4  1  0
  4  5  1  1
  5  6  2  0
  5  7  1  0
  7  8  1  0
  8  9  1  0
  9 10  2  0
 10 11  1  0
 11 12  2  0
 12 13  1  0
 13 14  1  0
 14 15  1  0
 15 16  2  0
 16 17  1  0
 17 18  2  0
 18 19  1  0
 19 20  2  0
 13 21  2  0
  4 22  1  0
 22 23  1  0
 23 24  2  3
 24 25  1  0
 24 26  1  0
 22  2  1  1
 21  9  1  0
 20 15  1  0
M  END
>  <zinc_id>  (1) 
ZINC000001850374

>  <smiles>  (1) 
CC1(C)[C@H](C=C(Cl)Cl)[C@H]1C(=O)OCc1cccc(Oc2ccccc2)c1

$$$$
