
     RDKit          3D

 17 18  0  0  0  0  0  0  0  0999 V2000
    2.9499    1.6267    1.6929 N   0  0  0  0  0  0  0  0  0  0  0  0
    2.9963    0.4482    0.4533 S   0  0  0  0  0  0  0  0  0  0  0  0
    3.7173    0.9937   -0.7702 O   0  0  0  0  0  0  0  0  0  0  0  0
    3.7788   -0.7570    0.9011 O   0  0  0  0  0  0  0  0  0  0  0  0
    1.3949   -0.0453   -0.0477 C   0  0  0  0  0  0  0  0  0  0  0  0
    0.2800    0.5260    0.5653 C   0  0  0  0  0  0  0  0  0  0  0  0
   -0.9720    0.1228    0.1553 C   0  0  0  0  0  0  0  0  0  0  0  0
   -1.1314   -0.8138   -0.8277 C   0  0  0  0  0  0  0  0  0  0  0  0
    0.0021   -1.3751   -1.4305 C   0  0  0  0  0  0  0  0  0  0  0  0
    1.2397   -0.9887   -1.0379 C   0  0  0  0  0  0  0  0  0  0  0  0
    2.7185   -1.6494   -1.7491 Cl  0  0  0  0  0  0  0  0  0  0  0  0
   -2.4347   -1.2296   -1.2504 N   0  0  0  0  0  0  0  0  0  0  0  0
   -3.6417   -0.7415   -0.7238 C   0  0  0  0  0  0  0  0  0  0  0  0
   -3.7717    0.1323    0.1963 N   0  0  0  0  0  0  0  0  0  0  0  0
   -2.3744    0.8230    0.9070 S   0  0  0  0  0  0  0  0  0  0  0  0
   -2.3542    0.6327    2.4004 O   0  0  0  0  0  0  0  0  0  0  0  0
   -2.3974    2.2950    0.5658 O   0  0  0  0  0  0  0  0  0  0  0  0
  1  2  1  0
  2  3  2  0
  2  4  2  0
  2  5  1  0
  5  6  2  0
  6  7  1  0
  7  8  2  0
  8  9  1  0
  9 10  2  0
 10 11  1  0
  8 12  1  0
 12 13  1  0
 13 14  2  0
 14 15  1  0
 15 16  2  0
 15 17  2  0
 10  5  1  0
 15  7  1  0
M  END
>  <zinc_id>  (1) 
ZINC000003872055

>  <smiles>  (1) 
NS(=O)(=O)c1cc2c(cc1Cl)NC=NS2(=O)=O

$$$$
