
     RDKit          3D

 25 27  0  0  0  0  0  0  0  0999 V2000
    4.4353   -1.8249    1.4734 C   0  0  0  0  0  0  0  0  0  0  0  0
    4.1886   -1.1706    0.4682 N   0  0  0  0  0  0  0  0  0  0  0  0
    4.6605   -1.8765   -0.7329 C   0  0  0  0  0  0  0  0  0  0  0  0
    4.9149    0.0890    0.5435 C   0  0  0  0  0  0  0  0  0  0  0  0
    4.9117    0.8278   -0.7787 C   0  0  0  0  0  0  0  0  0  0  0  0
    3.5659    0.5141   -1.4328 C   0  0  0  0  0  0  0  0  0  0  0  0
    2.5949    0.6404   -0.0583 C   0  0  1  0  0  0  0  0  0  0  0  0
    1.2988    0.3919   -0.8801 O   0  0  0  0  0  0  0  0  0  0  0  0
    0.1313    0.4126   -0.1205 C   0  0  0  0  0  0  0  0  0  0  0  0
    0.2135    0.6226    1.1173 O   0  0  0  0  0  0  0  0  0  0  0  0
   -1.2151    0.2013   -0.6851 C   0  0  0  0  0  0  0  0  0  0  0  0
   -1.1252   -0.0405   -2.0540 O   0  0  0  0  0  0  0  0  0  0  0  0
   -1.8074   -0.9999   -0.0130 C   0  0  0  0  0  0  0  0  0  0  0  0
   -2.2238   -2.0623   -0.7834 C   0  0  0  0  0  0  0  0  0  0  0  0
   -2.7805   -3.1927   -0.2289 C   0  0  0  0  0  0  0  0  0  0  0  0
   -2.9144   -3.2385    1.1400 C   0  0  0  0  0  0  0  0  0  0  0  0
   -2.5069   -2.1967    1.9078 C   0  0  0  0  0  0  0  0  0  0  0  0
   -1.9525   -1.0716    1.3506 C   0  0  0  0  0  0  0  0  0  0  0  0
   -2.1080    1.3667   -0.4038 C   0  0  0  0  0  0  0  0  0  0  0  0
   -3.3772    1.4661   -0.8675 C   0  0  0  0  0  0  0  0  0  0  0  0
   -4.1344    2.5879   -0.5549 C   0  0  0  0  0  0  0  0  0  0  0  0
   -3.6207    3.6138    0.2241 C   0  0  0  0  0  0  0  0  0  0  0  0
   -2.3209    3.5198    0.7035 C   0  0  0  0  0  0  0  0  0  0  0  0
   -1.6080    2.3968    0.3723 C   0  0  0  0  0  0  0  0  0  0  0  0
    2.7798   -0.9766    0.2932 C   0  0  0  0  0  0  0  0  0  0  0  0
  1  2  1  0
  2  3  1  0
  2  4  1  0
  4  5  1  0
  5  6  1  0
  6  7  1  0
  7  8  1  6
  8  9  1  0
  9 10  2  0
  9 11  1  0
 11 12  1  0
 11 13  1  0
 13 14  2  0
 14 15  1  0
 15 16  2  0
 16 17  1  0
 17 18  2  0
 11 19  1  0
 19 20  2  0
 20 21  1  0
 21 22  2  0
 22 23  1  0
 23 24  2  0
  7 25  1  0
 25  2  1  0
 18 13  1  0
 24 19  1  0
M  CHG  1   2   1
M  END
>  <zinc_id>  (1) 
ZINC000003813083

>  <smiles>  (1) 
C[N+]1(C)CCC[C@@H](OC(=O)C(O)(c2ccccc2)c2ccccc2)C1

$$$$
