
     RDKit          3D

 20 19  0  0  0  0  0  0  0  0999 V2000
   -6.3228   -0.0469   -0.1050 C   0  0  0  0  0  0  0  0  0  0  0  0
   -4.8972    0.1748    0.0853 N   0  0  0  0  0  0  0  0  0  0  0  0
   -4.6091   -0.2908    1.4458 C   0  0  0  0  0  0  0  0  0  0  0  0
   -4.5538    1.5652    0.0031 C   0  0  0  0  0  0  0  0  0  0  0  0
   -4.1970   -0.6700   -0.8374 C   0  0  0  0  0  0  0  0  0  0  0  0
   -3.3952    0.0982   -1.8556 C   0  0  0  0  0  0  0  0  0  0  0  0
   -2.4416    0.8866   -1.2168 O   0  0  0  0  0  0  0  0  0  0  0  0
   -1.4353    0.3505   -0.3943 C   0  0  0  0  0  0  0  0  0  0  0  0
   -1.4393   -0.8773   -0.2632 O   0  0  0  0  0  0  0  0  0  0  0  0
   -0.5103    1.3127    0.2028 C   0  0  0  0  0  0  0  0  0  0  0  0
    0.5791    0.7789    1.0393 C   0  0  0  0  0  0  0  0  0  0  0  0
    1.4574   -0.1081    0.2573 C   0  0  0  0  0  0  0  0  0  0  0  0
    1.2941   -1.3437    0.2335 O   0  0  0  0  0  0  0  0  0  0  0  0
    2.5259    0.4144   -0.5003 O   0  0  0  0  0  0  0  0  0  0  0  0
    3.3723   -0.4367   -1.2513 C   0  0  0  0  0  0  0  0  0  0  0  0
    4.0631   -1.4099   -0.3499 C   0  0  0  0  0  0  0  0  0  0  0  0
    4.8672   -0.7412    0.6266 N   0  0  0  0  0  0  0  0  0  0  0  0
    6.2230   -1.3016    0.5185 C   0  0  0  0  0  0  0  0  0  0  0  0
    4.4547   -0.9445    1.9909 C   0  0  0  0  0  0  0  0  0  0  0  0
    4.9647    0.7051    0.3704 C   0  0  0  0  0  0  0  0  0  0  0  0
  1  2  1  0
  2  3  1  0
  2  4  1  0
  2  5  1  0
  5  6  1  0
  6  7  1  0
  7  8  1  0
  8  9  2  0
  8 10  1  0
 10 11  1  0
 11 12  1  0
 12 13  2  0
 12 14  1  0
 14 15  1  0
 15 16  1  0
 16 17  1  0
 17 18  1  0
 17 19  1  0
 17 20  1  0
M  CHG  2   2   1  17   1
M  END
>  <zinc_id>  (1) 
ZINC000001530820

>  <smiles>  (1) 
C[N+](C)(C)CCOC(=O)CCC(=O)OCC[N+](C)(C)C

$$$$
