
     RDKit          3D

 34 34  0  0  0  0  0  0  0  0999 V2000
   -3.5689   -2.4279   -3.0201 C   0  0  0  0  0  0  0  0  0  0  0  0
   -2.5438   -1.5596   -2.3751 C   0  0  0  0  0  0  0  0  0  0  0  0
   -2.0838   -0.6705   -3.1482 O   0  0  0  0  0  0  0  0  0  0  0  0
   -2.0864   -1.6620   -1.0580 N   0  0  0  0  0  0  0  0  0  0  0  0
   -2.5951   -2.6059   -0.1779 C   0  0  0  0  0  0  0  0  0  0  0  0
   -3.8654   -2.0760    0.7061 C   0  0  1  0  0  0  0  0  0  0  0  0
   -4.8515   -1.7979   -0.4154 O   0  0  0  0  0  0  0  0  0  0  0  0
   -4.4695   -3.6173    0.9517 C   0  0  0  0  0  0  0  0  0  0  0  0
   -5.8138   -3.3717    1.2836 O   0  0  0  0  0  0  0  0  0  0  0  0
   -1.0505   -0.7656   -0.6647 C   0  0  0  0  0  0  0  0  0  0  0  0
   -1.2568    0.5672   -0.5687 C   0  0  0  0  0  0  0  0  0  0  0  0
   -3.1072    1.4883   -0.9816 I   0  0  0  0  0  0  0  0  0  0  0  0
   -0.2207    1.4090   -0.1814 C   0  0  0  0  0  0  0  0  0  0  0  0
   -0.4556    2.8710   -0.0769 C   0  0  0  0  0  0  0  0  0  0  0  0
   -1.6060    3.2795   -0.3431 O   0  0  0  0  0  0  0  0  0  0  0  0
    0.5404    3.7483    0.2953 N   0  0  0  0  0  0  0  0  0  0  0  0
    0.6532    5.0681    0.4667 C   0  0  0  0  0  0  0  0  0  0  0  0
    0.4606    6.0285   -0.8175 C   0  0  1  0  0  0  0  0  0  0  0  0
   -0.9692    5.7061   -1.1572 O   0  0  0  0  0  0  0  0  0  0  0  0
    0.0500    7.3778    0.0794 C   0  0  0  0  0  0  0  0  0  0  0  0
    1.3225    7.8307    0.4964 O   0  0  0  0  0  0  0  0  0  0  0  0
    1.0440    0.9384    0.1188 C   0  0  0  0  0  0  0  0  0  0  0  0
    2.6110    2.2181    0.7044 I   0  0  0  0  0  0  0  0  0  0  0  0
    1.2571   -0.4388    0.0198 C   0  0  0  0  0  0  0  0  0  0  0  0
    2.5838   -0.9256    0.3293 C   0  0  0  0  0  0  0  0  0  0  0  0
    3.4947   -0.1081    0.5843 O   0  0  0  0  0  0  0  0  0  0  0  0
    2.9062   -2.3039    0.3591 N   0  0  0  0  0  0  0  0  0  0  0  0
    4.2805   -2.6934    0.6783 C   0  0  0  0  0  0  0  0  0  0  0  0
    4.2857   -4.3481    0.6392 C   0  0  2  0  0  0  0  0  0  0  0  0
    3.2595   -4.5226    1.7667 O   0  0  0  0  0  0  0  0  0  0  0  0
    5.5819   -4.5140    1.6682 C   0  0  0  0  0  0  0  0  0  0  0  0
    5.4867   -3.5334    2.6030 O   0  0  0  0  0  0  0  0  0  0  0  0
    0.2274   -1.2650   -0.3644 C   0  0  0  0  0  0  0  0  0  0  0  0
    0.4989   -3.3235   -0.5458 I   0  0  0  0  0  0  0  0  0  0  0  0
  1  2  1  0
  2  3  2  0
  2  4  1  0
  4  5  1  0
  5  6  1  0
  6  7  1  6
  6  8  1  0
  8  9  1  0
  4 10  1  0
 10 11  2  0
 11 12  1  0
 11 13  1  0
 13 14  1  0
 14 15  2  0
 14 16  1  0
 16 17  1  0
 17 18  1  0
 18 19  1  6
 18 20  1  0
 20 21  1  0
 13 22  2  0
 22 23  1  0
 22 24  1  0
 24 25  1  0
 25 26  2  0
 25 27  1  0
 27 28  1  0
 28 29  1  0
 29 30  1  1
 29 31  1  0
 31 32  1  0
 24 33  2  0
 33 34  1  0
 33 10  1  0
M  END
>  <zinc_id>  (1) 
ZINC000003830946

>  <smiles>  (1) 
CC(=O)N(C[C@@H](O)CO)c1c(I)c(C(=O)NC[C@H](O)CO)c(I)c(C(=O)NC[C@@H](O)CO)c1I

$$$$
