
     RDKit          3D

 12 12  0  0  0  0  0  0  0  0999 V2000
    4.1423    0.7167    0.0870 N   0  0  0  0  0  0  0  0  0  0  0  0
    3.4953   -0.4857    0.5177 C   0  0  0  0  0  0  0  0  0  0  0  0
    2.0052   -0.2994    0.3762 C   0  0  0  0  0  0  0  0  0  0  0  0
    1.4957    0.8905   -0.1043 C   0  0  0  0  0  0  0  0  0  0  0  0
    0.1254    1.0086   -0.2140 C   0  0  0  0  0  0  0  0  0  0  0  0
   -0.7239   -0.0038    0.1345 C   0  0  0  0  0  0  0  0  0  0  0  0
   -2.4489    0.1500   -0.0056 S   0  0  0  0  0  0  0  0  0  0  0  0
   -3.0307   -0.3629   -1.5464 N   0  0  0  0  0  0  0  0  0  0  0  0
   -3.1603   -0.7001    1.0382 O   0  0  0  0  0  0  0  0  0  0  0  0
   -2.8653    1.5699    0.2403 O   0  0  0  0  0  0  0  0  0  0  0  0
   -0.1881   -1.1677    0.6063 C   0  0  0  0  0  0  0  0  0  0  0  0
    1.1534   -1.3161    0.7262 C   0  0  0  0  0  0  0  0  0  0  0  0
  1  2  1  0
  2  3  1  0
  3  4  2  0
  4  5  1  0
  5  6  2  0
  6  7  1  0
  7  8  1  0
  7  9  2  0
  7 10  2  0
  6 11  1  0
 11 12  2  0
 12  3  1  0
M  END
>  <zinc_id>  (1) 
ZINC000000001644

>  <smiles>  (1) 
NCc1ccc(S(N)(=O)=O)cc1

$$$$
