
     RDKit          2D

 28 31  0  0  0  0  0  0  0  0999 V2000
   -5.0096   -2.1352    0.0000 C   0  0  0  0  0  0  0  0  0  0  0  0
   -3.8132   -1.2303    0.0000 C   0  0  0  0  0  0  0  0  0  0  0  0
   -3.9987    0.2582    0.0000 C   0  0  0  0  0  0  0  0  0  0  0  0
   -5.3805    0.8418    0.0000 C   0  0  0  0  0  0  0  0  0  0  0  0
   -5.5659    2.3303    0.0000 C   0  0  0  0  0  0  0  0  0  0  0  0
   -4.3695    3.2351    0.0000 O   0  0  0  0  0  0  0  0  0  0  0  0
   -6.9477    2.9140    0.0000 O   0  0  0  0  0  0  0  0  0  0  0  0
   -2.4315   -1.8140    0.0000 C   0  0  0  0  0  0  0  0  0  0  0  0
   -2.0914   -3.2749    0.0000 C   0  0  0  0  0  0  0  0  0  0  0  0
   -0.5969   -3.4030    0.0000 C   0  0  0  0  0  0  0  0  0  0  0  0
   -0.0133   -2.0212    0.0000 C   0  0  0  0  0  0  0  0  0  0  0  0
    1.4041   -1.5304    0.0000 C   0  0  0  0  0  0  0  0  0  0  0  0
    2.5379   -2.5125    0.0000 C   0  0  0  0  0  0  0  0  0  0  0  0
    3.9554   -2.0216    0.0000 C   0  0  0  0  0  0  0  0  0  0  0  0
    4.2390   -0.5487    0.0000 C   0  0  0  0  0  0  0  0  0  0  0  0
    5.6564   -0.0578    0.0000 C   0  0  0  0  0  0  0  0  0  0  0  0
    5.9400    1.4151    0.0000 C   0  0  0  0  0  0  0  0  0  0  0  0
    7.3574    1.9060    0.0000 O   0  0  0  0  0  0  0  0  0  0  0  0
    4.8062    2.3972    0.0000 C   0  0  0  0  0  0  0  0  0  0  0  0
    3.3888    1.9064    0.0000 C   0  0  0  0  0  0  0  0  0  0  0  0
    3.1052    0.4334    0.0000 C   0  0  0  0  0  0  0  0  0  0  0  0
    1.9714    1.4155    0.0000 C   0  0  0  0  0  0  0  0  0  0  0  0
    1.6878   -0.0574    0.0000 C   0  0  0  0  0  0  0  0  0  0  0  0
    0.5540    0.9246    0.0000 C   0  0  0  0  0  0  0  0  0  0  0  0
   -0.8635    0.4338    0.0000 C   0  0  0  0  0  0  0  0  0  0  0  0
   -1.9973    1.4159    0.0000 O   0  0  0  0  0  0  0  0  0  0  0  0
   -1.1471   -1.0392    0.0000 C   0  0  0  0  0  0  0  0  0  0  0  0
   -2.3773   -0.1810    0.0000 C   0  0  0  0  0  0  0  0  0  0  0  0
  2  1  1  6
  2  3  1  0
  3  4  1  0
  4  5  1  0
  5  6  2  0
  5  7  1  0
  2  8  1  0
  8  9  1  6
  9 10  1  0
 11 10  1  6
 11 12  1  0
 12 13  1  1
 13 14  1  0
 15 14  1  1
 15 16  1  0
 16 17  1  0
 17 18  1  1
 17 19  1  0
 19 20  1  0
 20 21  1  0
 21 22  1  6
 21 23  1  0
 23 24  1  6
 24 25  1  0
 25 26  1  1
 25 27  1  0
 27 28  1  6
 27  8  1  0
 27 11  1  0
 23 12  1  0
 21 15  1  0
M  END
>  <zinc_id>  (1) 
ZINC000003914810

>  <smiles>  (1) 
C[C@H](CCC(=O)O)[C@H]1CC[C@H]2[C@@H]3CC[C@@H]4C[C@H](O)CC[C@]4(C)[C@H]3C[C@H](O)[C@@]21C

$$$$
