
     RDKit          3D

 31 35  0  0  0  0  0  0  0  0999 V2000
    3.0135   -2.5739    1.3390 C   0  0  0  0  0  0  0  0  0  0  0  0
    3.5360   -1.3457    0.9696 C   0  0  0  0  0  0  0  0  0  0  0  0
    4.8640   -1.0261    1.1559 N   0  0  0  0  0  0  0  0  0  0  0  0
    5.3483    0.1454    0.7997 C   0  0  0  0  0  0  0  0  0  0  0  0
    4.6081    1.0780    0.2494 N   0  0  0  0  0  0  0  0  0  0  0  0
    3.2800    0.8178    0.0390 C   0  0  0  0  0  0  0  0  0  0  0  0
    2.5402    1.7156   -0.4962 O   0  0  0  0  0  0  0  0  0  0  0  0
    2.7336   -0.3874    0.3943 C   0  0  0  0  0  0  0  0  0  0  0  0
    1.3029   -0.6690    0.1693 C   0  0  0  0  0  0  0  0  0  0  0  0
    1.2110   -1.5513   -1.0536 C   0  0  0  0  0  0  0  0  0  0  0  0
   -0.1541   -1.8902   -1.3269 N   0  0  0  0  0  0  0  0  0  0  0  0
   -0.7602   -2.7540   -0.3856 C   0  0  0  0  0  0  0  0  0  0  0  0
   -2.1977   -2.4938   -0.0933 C   0  0  0  0  0  0  0  0  0  0  0  0
   -2.6128   -1.0902   -0.1347 C   0  0  0  0  0  0  0  0  0  0  0  0
   -4.0289   -0.8282   -0.0485 C   0  0  0  0  0  0  0  0  0  0  0  0
   -4.9741   -1.8218    0.0196 N   0  0  0  0  0  0  0  0  0  0  0  0
   -6.1534   -1.3044    0.0904 O   0  0  0  0  0  0  0  0  0  0  0  0
   -6.1089    0.0241    0.0760 C   0  0  0  0  0  0  0  0  0  0  0  0
   -7.0899    0.9999    0.1292 C   0  0  0  0  0  0  0  0  0  0  0  0
   -6.6876    2.3225    0.0897 C   0  0  0  0  0  0  0  0  0  0  0  0
   -7.5486    3.3558    0.1368 F   0  0  0  0  0  0  0  0  0  0  0  0
   -5.3502    2.6062    0.0016 C   0  0  0  0  0  0  0  0  0  0  0  0
   -4.3687    1.6413   -0.0506 C   0  0  0  0  0  0  0  0  0  0  0  0
   -4.7707    0.3239   -0.0123 C   0  0  0  0  0  0  0  0  0  0  0  0
   -1.7385   -0.1301   -0.8002 C   0  0  0  0  0  0  0  0  0  0  0  0
   -0.8652   -0.7890   -1.8004 C   0  0  0  0  0  0  0  0  0  0  0  0
    5.0467    2.3981   -0.1779 C   0  0  0  0  0  0  0  0  0  0  0  0
    6.5506    2.5526   -0.0027 C   0  0  0  0  0  0  0  0  0  0  0  0
    7.1440    1.2013   -0.3661 C   0  0  0  0  0  0  0  0  0  0  0  0
    6.8744    0.3935    1.0724 C   0  0  2  0  0  0  0  0  0  0  0  0
    7.3563   -0.9208    0.4911 O   0  0  0  0  0  0  0  0  0  0  0  0
  1  2  1  0
  2  3  1  0
  3  4  2  0
  4  5  1  0
  5  6  1  0
  6  7  2  0
  6  8  1  0
  8  9  1  0
  9 10  1  0
 10 11  1  0
 11 12  1  0
 12 13  1  0
 13 14  1  0
 14 15  1  0
 15 16  2  0
 16 17  1  0
 17 18  1  0
 18 19  2  0
 19 20  1  0
 20 21  1  0
 20 22  2  0
 22 23  1  0
 23 24  2  0
 14 25  1  0
 25 26  1  0
  5 27  1  0
 27 28  1  0
 28 29  1  0
 29 30  1  0
 30 31  1  6
  8  2  2  0
 26 11  1  0
 30  4  1  0
 24 15  1  0
 24 18  1  0
M  END
>  <zinc_id>  (1) 
ZINC000004214700

>  <smiles>  (1) 
Cc1nc2n(c(=O)c1CCN1CCC(c3noc4cc(F)ccc34)CC1)CCC[C@@H]2O

$$$$
