
     RDKit          3D

 26 28  0  0  0  0  0  0  0  0999 V2000
   -1.6572   -0.7203   -2.3564 C   0  0  0  0  0  0  0  0  0  0  0  0
   -2.3342   -1.5291   -0.9907 C   0  0  1  0  0  0  0  0  0  0  0  0
   -0.9461   -1.4224   -0.3590 N   0  0  0  0  0  0  0  0  0  0  0  0
   -0.8335   -1.2379    1.0206 C   0  0  0  0  0  0  0  0  0  0  0  0
    0.4428   -0.2811    1.0821 C   0  0  0  0  0  0  0  0  0  0  0  0
    1.4827   -0.9205    0.3898 C   0  0  0  0  0  0  0  0  0  0  0  0
    2.7492   -0.5051    0.0114 C   0  0  0  0  0  0  0  0  0  0  0  0
    2.8879   -0.1784   -1.3619 C   0  0  0  0  0  0  0  0  0  0  0  0
    4.0462    0.2961   -1.8715 C   0  0  0  0  0  0  0  0  0  0  0  0
    5.1616    0.4883   -1.0889 C   0  0  0  0  0  0  0  0  0  0  0  0
    5.0431    0.1657    0.2663 C   0  0  0  0  0  0  0  0  0  0  0  0
    6.1373    0.3229    1.2535 C   0  0  0  0  0  0  0  0  0  0  0  0
    6.0421   -0.7237    2.1538 F   0  0  0  0  0  0  0  0  0  0  0  0
    7.3740    0.4028    0.6801 F   0  0  0  0  0  0  0  0  0  0  0  0
    5.8712    1.4783    2.0028 F   0  0  0  0  0  0  0  0  0  0  0  0
    3.8572   -0.3075    0.7448 C   0  0  0  0  0  0  0  0  0  0  0  0
   -2.9011   -0.1085   -0.4579 C   0  0  0  0  0  0  0  0  0  0  0  0
   -2.1365    0.9083   -0.3060 C   0  0  0  0  0  0  0  0  0  0  0  0
   -2.6573    2.0706    0.2807 C   0  0  0  0  0  0  0  0  0  0  0  0
   -3.9751    2.0905    0.6556 C   0  0  0  0  0  0  0  0  0  0  0  0
   -4.7868    1.0047    0.4633 C   0  0  0  0  0  0  0  0  0  0  0  0
   -6.1443    1.0994    0.6862 C   0  0  0  0  0  0  0  0  0  0  0  0
   -6.9311    0.0541    0.3628 C   0  0  0  0  0  0  0  0  0  0  0  0
   -6.4749   -1.1101   -0.1663 C   0  0  0  0  0  0  0  0  0  0  0  0
   -5.0992   -1.1786   -0.3973 C   0  0  0  0  0  0  0  0  0  0  0  0
   -4.2180   -0.1584   -0.1133 C   0  0  0  0  0  0  0  0  0  0  0  0
  2  1  1  6
  2  3  1  0
  3  4  1  0
  4  5  1  0
  5  6  1  0
  6  7  1  0
  7  8  2  0
  8  9  1  0
  9 10  2  0
 10 11  1  0
 11 12  1  0
 12 13  1  0
 12 14  1  0
 12 15  1  0
 11 16  2  0
  2 17  1  0
 17 18  2  0
 18 19  1  0
 19 20  2  0
 20 21  1  0
 21 22  2  0
 22 23  1  0
 23 24  2  0
 24 25  1  0
 25 26  2  0
 16  7  1  0
 26 17  1  0
 26 21  1  0
M  END
>  <zinc_id>  (1) 
ZINC000001550499

>  <smiles>  (1) 
C[C@@H](NCCCc1cccc(C(F)(F)F)c1)c1cccc2ccccc12

$$$$
