
     RDKit          3D

 23 25  0  0  0  0  0  0  0  0999 V2000
    4.6835    0.3642   -0.1184 C   0  0  0  0  0  0  0  0  0  0  0  0
    4.3993    0.6567    0.4071 N   0  0  0  0  0  0  0  0  0  0  0  0
    4.9660    1.9639    0.8052 C   0  0  0  0  0  0  0  0  0  0  0  0
    4.4386   -0.1349    1.6410 C   0  0  0  0  0  0  0  0  0  0  0  0
    3.2730   -1.0527    1.6261 C   0  0  0  0  0  0  0  0  0  0  0  0
    2.5894   -0.7137    0.1724 C   0  0  1  0  0  0  0  0  0  0  0  0
    1.1821   -0.5498    0.7687 O   0  0  0  0  0  0  0  0  0  0  0  0
    0.1964   -0.2350   -0.1583 C   0  0  0  0  0  0  0  0  0  0  0  0
    0.5160   -0.1101   -1.3832 O   0  0  0  0  0  0  0  0  0  0  0  0
   -1.2163   -0.0324    0.1840 C   0  0  2  0  0  0  0  0  0  0  0  0
   -1.3927   -0.2060    1.5654 O   0  0  0  0  0  0  0  0  0  0  0  0
   -2.0165   -1.0657   -0.4935 C   0  0  0  0  0  0  0  0  0  0  0  0
   -1.5313   -2.3620   -0.4361 C   0  0  0  0  0  0  0  0  0  0  0  0
   -2.1879   -3.4159   -1.0298 C   0  0  0  0  0  0  0  0  0  0  0  0
   -3.3628   -3.2015   -1.7063 C   0  0  0  0  0  0  0  0  0  0  0  0
   -3.8390   -1.9056   -1.7583 C   0  0  0  0  0  0  0  0  0  0  0  0
   -3.1861   -0.8445   -1.1655 C   0  0  0  0  0  0  0  0  0  0  0  0
   -1.6310    1.3663   -0.1693 C   0  0  0  0  0  0  0  0  0  0  0  0
   -3.0783    1.6357    0.1605 C   0  0  0  0  0  0  0  0  0  0  0  0
   -3.1489    3.0448    0.7035 C   0  0  0  0  0  0  0  0  0  0  0  0
   -1.7305    3.5683    0.6536 C   0  0  0  0  0  0  0  0  0  0  0  0
   -0.8624    2.3282    0.7213 C   0  0  0  0  0  0  0  0  0  0  0  0
    2.9395    0.9015    0.3647 C   0  0  0  0  0  0  0  0  0  0  0  0
  1  2  1  0
  2  3  1  0
  2  4  1  0
  4  5  1  0
  5  6  1  0
  6  7  1  1
  7  8  1  0
  8  9  2  0
  8 10  1  0
 10 11  1  1
 10 12  1  0
 12 13  2  0
 13 14  1  0
 14 15  2  0
 15 16  1  0
 16 17  2  0
 10 18  1  0
 18 19  1  0
 19 20  1  0
 20 21  1  0
 21 22  1  0
  6 23  1  0
 23  2  1  0
 17 12  1  0
 22 18  1  0
M  CHG  1   2   1
M  END
>  <zinc_id>  (1) 
ZINC000000896968

>  <smiles>  (1) 
C[N+]1(C)CC[C@@H](OC(=O)[C@](O)(c2ccccc2)C2CCCC2)C1

$$$$
