
     RDKit          3D

 31 33  0  0  0  0  0  0  0  0999 V2000
   -3.2173    4.8368    0.6572 C   0  0  0  0  0  0  0  0  0  0  0  0
   -4.0468    3.7234    0.5616 C   0  0  0  0  0  0  0  0  0  0  0  0
   -3.1723    2.6447    0.2859 O   0  0  0  0  0  0  0  0  0  0  0  0
   -2.3483    2.4757   -0.7409 C   0  0  0  0  0  0  0  0  0  0  0  0
   -2.2939    3.3593   -1.6207 O   0  0  0  0  0  0  0  0  0  0  0  0
   -1.3929    1.2611   -0.9984 C   0  0  2  0  0  0  0  0  0  0  0  0
   -1.0725    0.8650    0.4935 C   0  0  0  0  0  0  0  0  0  0  0  0
   -2.2518    0.4295    1.2482 C   0  0  0  0  0  0  0  0  0  0  0  0
   -2.9168   -0.7759    0.7803 C   0  0  0  0  0  0  0  0  0  0  0  0
   -3.9350   -0.7458   -0.1242 C   0  0  0  0  0  0  0  0  0  0  0  0
   -4.5416   -1.8806   -0.5539 C   0  0  0  0  0  0  0  0  0  0  0  0
   -4.1373   -3.1059   -0.0800 C   0  0  0  0  0  0  0  0  0  0  0  0
   -3.1123   -3.1978    0.8367 C   0  0  0  0  0  0  0  0  0  0  0  0
   -2.5222   -2.0188    1.2477 C   0  0  0  0  0  0  0  0  0  0  0  0
   -0.2522    2.0187   -1.5032 N   0  0  0  0  0  0  0  0  0  0  0  0
    1.1569    1.5580   -1.3962 C   0  0  1  0  0  0  0  0  0  0  0  0
    1.2504    1.6793    0.2155 C   0  0  0  0  0  0  0  0  0  0  0  0
    2.6135    1.9123    0.6416 C   0  0  0  0  0  0  0  0  0  0  0  0
    3.4627    0.7017    0.6442 C   0  0  0  0  0  0  0  0  0  0  0  0
    4.5070    0.9191    1.5057 C   0  0  0  0  0  0  0  0  0  0  0  0
    5.4437   -0.0704    1.6862 C   0  0  0  0  0  0  0  0  0  0  0  0
    5.2945   -1.2494    0.9882 C   0  0  0  0  0  0  0  0  0  0  0  0
    4.2208   -1.4517    0.1120 C   0  0  0  0  0  0  0  0  0  0  0  0
    3.2855   -0.4597   -0.0655 C   0  0  0  0  0  0  0  0  0  0  0  0
    2.2131   -0.7388   -0.9767 N   0  0  0  0  0  0  0  0  0  0  0  0
    2.3350   -2.1182   -1.4564 C   0  0  0  0  0  0  0  0  0  0  0  0
    1.5936   -3.0315   -0.5578 C   0  0  0  0  0  0  0  0  0  0  0  0
    0.9876   -2.5559    0.4330 O   0  0  0  0  0  0  0  0  0  0  0  0
    1.5235   -4.3963   -0.7410 O   0  0  0  0  0  0  0  0  0  0  0  0
    1.1332    0.0023   -1.4673 C   0  0  0  0  0  0  0  0  0  0  0  0
    0.1924   -0.5903   -1.9429 O   0  0  0  0  0  0  0  0  0  0  0  0
  1  2  1  0
  2  3  1  0
  3  4  1  0
  4  5  2  0
  4  6  1  0
  6  7  1  1
  7  8  1  0
  8  9  1  0
  9 10  2  0
 10 11  1  0
 11 12  2  0
 12 13  1  0
 13 14  2  0
  6 15  1  0
 16 15  1  1
 16 17  1  0
 17 18  1  0
 18 19  1  0
 19 20  2  0
 20 21  1  0
 21 22  2  0
 22 23  1  0
 23 24  2  0
 24 25  1  0
 25 26  1  0
 26 27  1  0
 27 28  2  0
 27 29  1  0
 25 30  1  0
 30 31  2  0
 14  9  1  0
 30 16  1  0
 24 19  1  0
M  END
>  <zinc_id>  (1) 
ZINC000003781943

>  <smiles>  (1) 
CCOC(=O)[C@H](CCc1ccccc1)N[C@H]1CCc2ccccc2N(CC(=O)O)C1=O

$$$$
