
     RDKit          3D

 23 25  0  0  0  0  0  0  0  0999 V2000
    5.8238    0.1574    0.6059 C   0  0  0  0  0  0  0  0  0  0  0  0
    5.1405   -0.1983    0.0898 O   0  0  0  0  0  0  0  0  0  0  0  0
    3.7938    0.1053   -0.0141 C   0  0  0  0  0  0  0  0  0  0  0  0
    3.2179    1.1351    0.7598 C   0  0  0  0  0  0  0  0  0  0  0  0
    1.8873    1.3968    0.6222 C   0  0  0  0  0  0  0  0  0  0  0  0
    1.1519    0.6488   -0.2657 C   0  0  0  0  0  0  0  0  0  0  0  0
    1.6660   -0.3540   -1.0322 C   0  0  0  0  0  0  0  0  0  0  0  0
    3.0360   -0.6272   -0.8941 C   0  0  0  0  0  0  0  0  0  0  0  0
    3.6489   -1.6223   -1.6260 O   0  0  0  0  0  0  0  0  0  0  0  0
    2.9688   -2.4363   -2.5581 C   0  0  0  0  0  0  0  0  0  0  0  0
   -0.3806    1.0256   -0.3984 C   0  0  1  0  0  0  0  0  0  0  0  0
   -0.8798   -0.5058   -0.7098 C   0  0  0  0  0  0  0  0  0  0  0  0
   -2.3317   -0.5046   -0.5670 C   0  0  0  0  0  0  0  0  0  0  0  0
   -3.0771   -0.5862   -1.4616 O   0  0  0  0  0  0  0  0  0  0  0  0
   -2.8390   -0.3842    0.8944 C   0  0  2  0  0  0  0  0  0  0  0  0
   -4.3271    0.1337    0.6111 C   0  0  0  0  0  0  0  0  0  0  0  0
   -5.0703   -0.8804   -0.1717 C   0  0  0  0  0  0  0  0  0  0  0  0
   -5.2207   -2.2193    0.4651 C   0  0  0  0  0  0  0  0  0  0  0  0
   -6.3125   -0.4026   -0.8256 C   0  0  0  0  0  0  0  0  0  0  0  0
   -2.2075    1.0949    1.1672 C   0  0  0  0  0  0  0  0  0  0  0  0
   -0.7880    1.0033    1.0923 N   0  0  0  0  0  0  0  0  0  0  0  0
    0.0054    1.6034    1.9919 C   0  0  0  0  0  0  0  0  0  0  0  0
    1.0938    2.4171    1.3307 C   0  0  0  0  0  0  0  0  0  0  0  0
  1  2  1  0
  2  3  1  0
  3  4  2  0
  4  5  1  0
  5  6  2  0
  6  7  1  0
  7  8  2  0
  8  9  1  0
  9 10  1  0
  6 11  1  0
 11 12  1  6
 12 13  1  0
 13 14  2  0
 13 15  1  0
 15 16  1  6
 16 17  1  0
 17 18  1  0
 17 19  1  0
 15 20  1  0
 20 21  1  0
 21 22  1  0
 22 23  1  0
  8  3  1  0
 21 11  1  0
 23  5  1  0
M  END
>  <zinc_id>  (1) 
ZINC000000000751

>  <smiles>  (1) 
COc1cc2c(cc1OC)[C@H]1CC(=O)[C@H](CC(C)C)CN1CC2

$$$$
