
     RDKit          3D

 13 13  0  0  0  0  0  0  0  0999 V2000
    3.5294    0.7647    1.7345 C   0  0  0  0  0  0  0  0  0  0  0  0
    2.7254   -0.0788    1.1958 N   0  0  0  0  0  0  0  0  0  0  0  0
    2.6695   -0.0727   -0.2381 C   0  0  0  0  0  0  0  0  0  0  0  0
    1.5512   -1.2648   -0.5775 C   0  0  2  0  0  0  0  0  0  0  0  0
    1.7050   -1.0287   -2.0889 O   0  0  0  0  0  0  0  0  0  0  0  0
    0.2381   -0.3887   -0.4628 C   0  0  0  0  0  0  0  0  0  0  0  0
    0.0275    0.7940   -0.9978 C   0  0  0  0  0  0  0  0  0  0  0  0
   -1.2179    1.4128   -0.7764 C   0  0  0  0  0  0  0  0  0  0  0  0
   -2.2011    0.8275   -0.0314 C   0  0  0  0  0  0  0  0  0  0  0  0
   -3.4079    1.5052    0.1416 O   0  0  0  0  0  0  0  0  0  0  0  0
   -1.9679   -0.4091    0.5222 C   0  0  0  0  0  0  0  0  0  0  0  0
   -2.9259   -1.0496    1.2854 O   0  0  0  0  0  0  0  0  0  0  0  0
   -0.7253   -1.0117    0.2934 C   0  0  0  0  0  0  0  0  0  0  0  0
  1  2  1  0
  2  3  1  0
  3  4  1  0
  4  5  1  6
  4  6  1  0
  6  7  2  0
  7  8  1  0
  8  9  2  0
  9 10  1  0
  9 11  1  0
 11 12  1  0
 11 13  2  0
 13  6  1  0
M  END
>  <zinc_id>  (1) 
ZINC000000039089

>  <smiles>  (1) 
CNC[C@H](O)c1ccc(O)c(O)c1

$$$$
