
     RDKit          3D

 24 25  0  0  0  0  0  0  0  0999 V2000
   -1.9507   -0.9255    1.2037 C   0  0  0  0  0  0  0  0  0  0  0  0
   -2.0440   -0.7236   -0.4209 C   0  0  2  0  0  0  0  0  0  0  0  0
   -3.3691   -1.7272   -0.6224 C   0  0  0  0  0  0  0  0  0  0  0  0
   -4.4672   -1.2094    0.1528 C   0  0  0  0  0  0  0  0  0  0  0  0
   -4.9782    0.1245   -0.0972 C   0  0  0  0  0  0  0  0  0  0  0  0
   -4.5134    1.2793    0.5141 C   0  0  0  0  0  0  0  0  0  0  0  0
   -5.0501    2.5144    0.2282 C   0  0  0  0  0  0  0  0  0  0  0  0
   -6.0739    2.6650   -0.6790 C   0  0  0  0  0  0  0  0  0  0  0  0
   -6.5562    1.5171   -1.3049 C   0  0  0  0  0  0  0  0  0  0  0  0
   -6.0045    0.2970   -1.0019 C   0  0  0  0  0  0  0  0  0  0  0  0
   -1.0269   -1.7284   -0.8254 N   0  0  0  0  0  0  0  0  0  0  0  0
    0.2321   -1.6073   -0.7255 C   0  0  0  0  0  0  0  0  0  0  0  0
    1.0391   -1.4813    0.6086 C   0  0  2  0  0  0  0  0  0  0  0  0
    0.5793   -0.0966    1.0447 O   0  0  0  0  0  0  0  0  0  0  0  0
    2.4387   -1.0062    0.0166 C   0  0  0  0  0  0  0  0  0  0  0  0
    2.8231   -1.5446   -1.1796 C   0  0  0  0  0  0  0  0  0  0  0  0
    4.0579   -1.1554   -1.7369 C   0  0  0  0  0  0  0  0  0  0  0  0
    4.8113   -0.2402   -1.0284 C   0  0  0  0  0  0  0  0  0  0  0  0
    6.0558    0.1964   -1.5209 O   0  0  0  0  0  0  0  0  0  0  0  0
    4.3922    0.2821    0.1743 C   0  0  0  0  0  0  0  0  0  0  0  0
    5.2447    1.2533    0.8708 C   0  0  0  0  0  0  0  0  0  0  0  0
    4.8633    1.8280    2.1155 N   0  0  0  0  0  0  0  0  0  0  0  0
    6.3303    1.5930    0.3746 O   0  0  0  0  0  0  0  0  0  0  0  0
    3.1663   -0.1043    0.7285 C   0  0  0  0  0  0  0  0  0  0  0  0
  2  1  1  1
  2  3  1  0
  3  4  1  0
  4  5  1  0
  5  6  2  0
  6  7  1  0
  7  8  2  0
  8  9  1  0
  9 10  2  0
  2 11  1  0
 11 12  1  0
 12 13  1  0
 13 14  1  1
 13 15  1  0
 15 16  2  0
 16 17  1  0
 17 18  2  0
 18 19  1  0
 18 20  1  0
 20 21  1  0
 21 22  1  0
 21 23  2  0
 20 24  2  0
 10  5  1  0
 24 15  1  0
M  END
>  <zinc_id>  (1) 
ZINC000000004319

>  <smiles>  (1) 
C[C@H](CCc1ccccc1)NC[C@H](O)c1ccc(O)c(C(N)=O)c1

$$$$
