
     RDKit          3D

 25 26  0  0  0  0  0  0  0  0999 V2000
   -7.9677    1.0300    0.7338 C   0  0  0  0  0  0  0  0  0  0  0  0
   -6.8262    1.0773    1.6884 C   0  0  0  0  0  0  0  0  0  0  0  0
   -5.9968   -0.1416    1.5479 C   0  0  0  0  0  0  0  0  0  0  0  0
   -4.8231   -0.2467    2.4271 C   0  0  0  0  0  0  0  0  0  0  0  0
   -3.8029    0.8548    2.2733 C   0  0  0  0  0  0  0  0  0  0  0  0
   -2.6846    0.3945    3.3883 C   0  0  2  0  0  0  0  0  0  0  0  0
   -1.7740    1.5690    3.1038 O   0  0  0  0  0  0  0  0  0  0  0  0
   -1.9198   -0.6185    2.4017 C   0  0  0  0  0  0  0  0  0  0  0  0
   -1.6148   -0.2259    1.2177 C   0  0  0  0  0  0  0  0  0  0  0  0
   -0.8703   -1.3144    0.3588 C   0  0  1  0  0  0  0  0  0  0  0  0
   -1.6704   -0.8688   -1.0494 C   0  0  2  0  0  0  0  0  0  0  0  0
   -2.1575   -2.2705   -1.3090 O   0  0  0  0  0  0  0  0  0  0  0  0
   -0.3464   -1.0315   -1.9855 C   0  0  0  0  0  0  0  0  0  0  0  0
   -0.0042    0.3867   -1.2527 C   0  0  2  0  0  0  0  0  0  0  0  0
    1.4130    0.4864   -1.7865 O   0  0  0  0  0  0  0  0  0  0  0  0
    2.0289   -0.6840   -1.5307 C   0  0  0  0  0  0  0  0  0  0  0  0
    3.1905   -1.0183   -2.1267 C   0  0  0  0  0  0  0  0  0  0  0  0
    3.8709   -0.1453   -3.0911 C   0  0  0  0  0  0  0  0  0  0  0  0
    5.2294    0.1303   -2.4654 C   0  0  0  0  0  0  0  0  0  0  0  0
    4.9477    0.8039   -1.1429 C   0  0  0  0  0  0  0  0  0  0  0  0
    6.2470    1.0927   -0.4942 C   0  0  0  0  0  0  0  0  0  0  0  0
    6.3273    1.6574    0.6326 O   0  0  0  0  0  0  0  0  0  0  0  0
    7.4096    0.7378   -1.1324 O   0  0  0  0  0  0  0  0  0  0  0  0
    1.3231   -1.5254   -0.5672 C   0  0  0  0  0  0  0  0  0  0  0  0
    0.4713   -0.3680    0.1604 C   0  0  2  0  0  0  0  0  0  0  0  0
  1  2  1  0
  2  3  1  0
  3  4  1  0
  4  5  1  0
  5  6  1  0
  6  7  1  6
  6  8  1  0
  8  9  2  0
 10  9  1  1
 10 11  1  0
 11 12  1  6
 11 13  1  0
 14 13  1  6
 14 15  1  0
 15 16  1  0
 16 17  2  0
 17 18  1  0
 18 19  1  0
 19 20  1  0
 20 21  1  0
 21 22  2  0
 21 23  1  0
 16 24  1  0
 25 24  1  6
 25 10  1  0
 25 14  1  0
M  END
>  <zinc_id>  (1) 
ZINC000003813078

>  <smiles>  (1) 
CCCCC[C@H](O)/C=C/[C@H]1[C@H](O)C[C@@H]2O/C(=C\CCCC(=O)O)C[C@@H]21

$$$$
