
     RDKit          3D

 23 25  0  0  0  0  0  0  0  0999 V2000
   -1.9171   -1.8625   -0.1207 C   0  0  0  0  0  0  0  0  0  0  0  0
   -0.9221   -1.5380    1.1025 C   0  0  2  0  0  0  0  0  0  0  0  0
   -2.0280   -0.7280    1.9672 C   0  0  0  0  0  0  0  0  0  0  0  0
   -1.9646    0.7291    1.6020 C   0  0  0  0  0  0  0  0  0  0  0  0
   -2.2090    0.7628    0.1815 N   0  0  0  0  0  0  0  0  0  0  0  0
   -3.4261    1.2314   -0.3538 C   0  0  0  0  0  0  0  0  0  0  0  0
   -3.5970    1.2429   -1.6096 O   0  0  0  0  0  0  0  0  0  0  0  0
   -4.5349    1.7202    0.4826 C   0  0  0  0  0  0  0  0  0  0  0  0
   -5.5850    0.6854    0.6496 C   0  0  0  0  0  0  0  0  0  0  0  0
   -6.3887   -0.1275    0.7932 N   0  0  0  0  0  0  0  0  0  0  0  0
   -1.1356    0.2909   -0.6420 C   0  0  0  0  0  0  0  0  0  0  0  0
   -0.0783   -0.2087    0.4711 C   0  0  2  0  0  0  0  0  0  0  0  0
    0.8560   -0.9849   -0.4747 N   0  0  0  0  0  0  0  0  0  0  0  0
    0.3506   -1.7645   -1.5408 C   0  0  0  0  0  0  0  0  0  0  0  0
    2.2432   -0.8997   -0.2487 C   0  0  0  0  0  0  0  0  0  0  0  0
    2.9602   -2.0204   -0.0070 N   0  0  0  0  0  0  0  0  0  0  0  0
    4.2888   -1.9819    0.2100 C   0  0  0  0  0  0  0  0  0  0  0  0
    4.9371   -0.7904    0.1878 N   0  0  0  0  0  0  0  0  0  0  0  0
    4.3052    0.3573   -0.0424 C   0  0  0  0  0  0  0  0  0  0  0  0
    4.7314    1.6106   -0.1075 N   0  0  0  0  0  0  0  0  0  0  0  0
    3.6520    2.3927   -0.3716 C   0  0  0  0  0  0  0  0  0  0  0  0
    2.5266    1.5876   -0.4717 C   0  0  0  0  0  0  0  0  0  0  0  0
    2.9352    0.2958   -0.2638 C   0  0  0  0  0  0  0  0  0  0  0  0
  2  1  1  6
  2  3  1  0
  3  4  1  0
  4  5  1  0
  5  6  1  0
  6  7  2  0
  6  8  1  0
  8  9  1  0
  9 10  3  0
  5 11  1  0
 11 12  1  0
 12 13  1  6
 13 14  1  0
 13 15  1  0
 15 16  2  0
 16 17  1  0
 17 18  2  0
 18 19  1  0
 19 20  1  0
 20 21  1  0
 21 22  2  0
 22 23  1  0
 12  2  1  0
 23 15  1  0
 23 19  2  0
M  END
>  <zinc_id>  (1) 
ZINC000003818808

>  <smiles>  (1) 
C[C@@H]1CCN(C(=O)CC#N)C[C@@H]1N(C)c1ncnc2[nH]ccc12

$$$$
