
     RDKit          3D

 21 22  0  0  0  0  0  0  0  0999 V2000
   -6.7443    2.7318    0.6869 C   0  0  0  0  0  0  0  0  0  0  0  0
   -5.2409    2.8285    0.5326 C   0  0  0  0  0  0  0  0  0  0  0  0
   -4.7650    1.4694    0.0329 C   0  0  0  0  0  0  0  0  0  0  0  0
   -5.1184    0.3712    1.0171 C   0  0  0  0  0  0  0  0  0  0  0  0
   -4.6401   -0.8413    0.4702 O   0  0  0  0  0  0  0  0  0  0  0  0
   -3.2708   -0.9929    0.2069 C   0  0  0  0  0  0  0  0  0  0  0  0
   -2.8096   -2.1804   -0.3276 C   0  0  0  0  0  0  0  0  0  0  0  0
   -1.4606   -2.3255   -0.5853 C   0  0  0  0  0  0  0  0  0  0  0  0
   -0.5578   -1.3006   -0.3175 C   0  0  0  0  0  0  0  0  0  0  0  0
    0.8725   -1.4685   -0.5963 C   0  0  0  0  0  0  0  0  0  0  0  0
    1.2627   -2.5547   -1.0805 O   0  0  0  0  0  0  0  0  0  0  0  0
    1.7753   -0.3358   -0.2863 C   0  0  0  0  0  0  0  0  0  0  0  0
    3.1725   -0.7101   -0.6412 C   0  0  0  0  0  0  0  0  0  0  0  0
    4.1463    0.2906   -0.3935 N   0  0  0  0  0  0  0  0  0  0  0  0
    5.4729    0.0093   -0.7015 C   0  0  0  0  0  0  0  0  0  0  0  0
    6.5044    0.3614    0.3101 C   0  0  0  0  0  0  0  0  0  0  0  0
    6.1998    1.7766    0.8204 C   0  0  0  0  0  0  0  0  0  0  0  0
    4.8458    1.6581    1.5296 C   0  0  0  0  0  0  0  0  0  0  0  0
    3.8282    1.3172    0.4929 C   0  0  0  0  0  0  0  0  0  0  0  0
   -1.0651   -0.1364    0.2147 C   0  0  0  0  0  0  0  0  0  0  0  0
   -2.4078    0.0322    0.4807 C   0  0  0  0  0  0  0  0  0  0  0  0
  1  2  1  0
  2  3  1  0
  3  4  1  0
  4  5  1  0
  5  6  1  0
  6  7  2  0
  7  8  1  0
  8  9  2  0
  9 10  1  0
 10 11  2  0
 10 12  1  0
 12 13  1  0
 13 14  1  0
 14 15  1  0
 15 16  1  0
 16 17  1  0
 17 18  1  0
 18 19  1  0
  9 20  1  0
 20 21  2  0
 21  6  1  0
 19 14  1  0
M  END
>  <zinc_id>  (1) 
ZINC000001530940

>  <smiles>  (1) 
CCCCOc1ccc(C(=O)CCN2CCCCC2)cc1

$$$$
