
     RDKit          3D

 25 26  0  0  0  0  0  0  0  0999 V2000
   -5.7228    1.5941   -2.6634 C   0  0  0  0  0  0  0  0  0  0  0  0
   -5.3935    1.4859   -1.9715 O   0  0  0  0  0  0  0  0  0  0  0  0
   -4.5023    0.8915   -1.0917 C   0  0  0  0  0  0  0  0  0  0  0  0
   -3.6091   -0.0755   -1.4320 C   0  0  0  0  0  0  0  0  0  0  0  0
   -2.7628   -0.6056   -0.4829 C   0  0  0  0  0  0  0  0  0  0  0  0
   -2.7916   -0.1842    0.8128 C   0  0  0  0  0  0  0  0  0  0  0  0
   -1.9358   -0.6744    1.9151 C   0  0  0  0  0  0  0  0  0  0  0  0
   -0.6445    0.3416    1.8687 C   0  0  1  0  0  0  0  0  0  0  0  0
    0.0794   -0.3895    3.1741 C   0  0  0  0  0  0  0  0  0  0  0  0
    0.1334   -0.4854    0.7922 N   0  0  0  0  0  0  0  0  0  0  0  0
    0.4524   -1.7418    1.3098 C   0  0  0  0  0  0  0  0  0  0  0  0
    1.2879   -2.6144    0.1984 C   0  0  1  0  0  0  0  0  0  0  0  0
    0.1793   -2.6107   -0.8641 O   0  0  0  0  0  0  0  0  0  0  0  0
    2.1302   -1.4337   -0.4185 C   0  0  0  0  0  0  0  0  0  0  0  0
    2.2734   -1.3411   -1.7755 C   0  0  0  0  0  0  0  0  0  0  0  0
    3.0271   -0.3209   -2.3598 C   0  0  0  0  0  0  0  0  0  0  0  0
    3.6415    0.6138   -1.5655 C   0  0  0  0  0  0  0  0  0  0  0  0
    4.4058    1.6521   -2.1188 O   0  0  0  0  0  0  0  0  0  0  0  0
    3.5014    0.5258   -0.2002 C   0  0  0  0  0  0  0  0  0  0  0  0
    4.1474    1.5046    0.5655 N   0  0  0  0  0  0  0  0  0  0  0  0
    4.1235    1.5477    1.9802 C   0  0  0  0  0  0  0  0  0  0  0  0
    3.5033    0.6813    2.6324 O   0  0  0  0  0  0  0  0  0  0  0  0
    2.7369   -0.5100    0.3770 C   0  0  0  0  0  0  0  0  0  0  0  0
   -3.7107    0.8141    1.1730 C   0  0  0  0  0  0  0  0  0  0  0  0
   -4.5498    1.3346    0.2157 C   0  0  0  0  0  0  0  0  0  0  0  0
  1  2  1  0
  2  3  1  0
  3  4  2  0
  4  5  1  0
  5  6  2  0
  6  7  1  0
  7  8  1  0
  8  9  1  1
  8 10  1  0
 10 11  1  0
 11 12  1  0
 12 13  1  6
 12 14  1  0
 14 15  2  0
 15 16  1  0
 16 17  2  0
 17 18  1  0
 17 19  1  0
 19 20  1  0
 20 21  1  0
 21 22  2  0
 19 23  2  0
  6 24  1  0
 24 25  2  0
 25  3  1  0
 23 14  1  0
M  END
>  <zinc_id>  (1) 
ZINC000000897258

>  <smiles>  (1) 
COc1ccc(C[C@@H](C)NC[C@@H](O)c2ccc(O)c(NC=O)c2)cc1

$$$$
