
     RDKit          2D

 40 42  0  0  0  0  0  0  0  0999 V2000
   -5.2109    4.5468    0.0000 C   0  0  0  0  0  0  0  0  0  0  0  0
   -4.2332    3.4092    0.0000 N   0  0  0  0  0  0  0  0  0  0  0  0
   -4.7295    1.9937    0.0000 C   0  0  0  0  0  0  0  0  0  0  0  0
   -6.2036    1.7158    0.0000 C   0  0  0  0  0  0  0  0  0  0  0  0
   -7.1812    2.8534    0.0000 O   0  0  0  0  0  0  0  0  0  0  0  0
   -6.6999    0.3003    0.0000 C   0  0  0  0  0  0  0  0  0  0  0  0
   -8.1739    0.0224    0.0000 O   0  0  0  0  0  0  0  0  0  0  0  0
   -5.7222   -0.8373    0.0000 C   0  0  0  0  0  0  0  0  0  0  0  0
   -6.2186   -2.2528    0.0000 C   0  0  0  0  0  0  0  0  0  0  0  0
   -5.2409   -3.3904    0.0000 O   0  0  0  0  0  0  0  0  0  0  0  0
   -4.2482   -0.5594    0.0000 O   0  0  0  0  0  0  0  0  0  0  0  0
   -3.7518    0.8561    0.0000 C   0  0  0  0  0  0  0  0  0  0  0  0
   -2.2778    1.1340    0.0000 O   0  0  0  0  0  0  0  0  0  0  0  0
   -1.3001   -0.0036    0.0000 C   0  0  0  0  0  0  0  0  0  0  0  0
    0.1949    0.1187    0.0000 C   0  0  0  0  0  0  0  0  0  0  0  0
    0.9747    1.4001    0.0000 O   0  0  0  0  0  0  0  0  0  0  0  0
    2.4743    1.3654    0.0000 C   0  0  0  0  0  0  0  0  0  0  0  0
    3.2541    2.6468    0.0000 C   0  0  0  0  0  0  0  0  0  0  0  0
    2.5343    3.9628    0.0000 O   0  0  0  0  0  0  0  0  0  0  0  0
    4.7537    2.6122    0.0000 C   0  0  0  0  0  0  0  0  0  0  0  0
    5.5335    3.8935    0.0000 O   0  0  0  0  0  0  0  0  0  0  0  0
    5.4735    1.2962    0.0000 C   0  0  0  0  0  0  0  0  0  0  0  0
    6.9731    1.2615    0.0000 N   0  0  0  0  0  0  0  0  0  0  0  0
    7.6929   -0.0545    0.0000 C   0  0  0  0  0  0  0  0  0  0  0  0
    6.9131   -1.3359    0.0000 N   0  0  0  0  0  0  0  0  0  0  0  0
    9.1925   -0.0891    0.0000 N   0  0  0  0  0  0  0  0  0  0  0  0
    4.6937    0.0148    0.0000 C   0  0  0  0  0  0  0  0  0  0  0  0
    5.4135   -1.3012    0.0000 O   0  0  0  0  0  0  0  0  0  0  0  0
    3.1941    0.0494    0.0000 C   0  0  0  0  0  0  0  0  0  0  0  0
    2.4143   -1.2320    0.0000 N   0  0  0  0  0  0  0  0  0  0  0  0
    3.1341   -2.5480    0.0000 C   0  0  0  0  0  0  0  0  0  0  0  0
    4.6337   -2.5826    0.0000 N   0  0  0  0  0  0  0  0  0  0  0  0
    2.3543   -3.8293    0.0000 N   0  0  0  0  0  0  0  0  0  0  0  0
    0.7732   -1.2653    0.0000 O   0  0  0  0  0  0  0  0  0  0  0  0
   -0.3644   -2.2430    0.0000 C   0  0  0  0  0  0  0  0  0  0  0  0
   -0.2421   -3.7380    0.0000 C   0  0  0  0  0  0  0  0  0  0  0  0
   -1.6458   -1.4632    0.0000 C   0  0  0  0  0  0  0  0  0  0  0  0
   -3.0613   -0.9669    0.0000 O   0  0  0  0  0  0  0  0  0  0  0  0
   -2.2874   -2.8191    0.0000 C   0  0  0  0  0  0  0  0  0  0  0  0
   -3.7824   -2.9414    0.0000 O   0  0  0  0  0  0  0  0  0  0  0  0
  1  2  1  0
  3  2  1  6
  3  4  1  0
  4  5  1  1
  4  6  1  0
  6  7  1  6
  6  8  1  0
  8  9  1  1
  9 10  1  0
  8 11  1  0
 11 12  1  0
 12 13  1  6
 14 13  1  1
 14 15  1  0
 15 16  1  6
 17 16  1  1
 17 18  1  0
 18 19  1  6
 18 20  1  0
 20 21  1  1
 20 22  1  0
 22 23  1  6
 23 24  1  0
 24 25  2  0
 24 26  1  0
 22 27  1  0
 27 28  1  1
 27 29  1  0
 29 30  1  6
 30 31  1  0
 31 32  2  0
 31 33  1  0
 15 34  1  0
 34 35  1  0
 35 36  1  1
 35 37  1  0
 37 38  1  1
 37 39  1  0
 39 40  2  0
 12  3  1  0
 37 14  1  0
 29 17  1  0
M  END
>  <zinc_id>  (1) 
ZINC000008214681

>  <smiles>  (1) 
CN[C@@H]1[C@H](O[C@H]2[C@H](O[C@@H]3[C@@H](NC(=N)N)[C@H](O)[C@@H](NC(=N)N)[C@H](O)[C@H]3O)O[C@@H](C)[C@]2(O)C=O)O[C@@H](CO)[C@H](O)[C@H]1O

$$$$
