
     RDKit          2D

 30 31  0  0  0  0  0  0  0  0999 V2000
    3.5754   -1.6337    0.0000 C   0  0  0  0  0  0  0  0  0  0  0  0
    2.0834   -1.4788    0.0000 C   0  0  0  0  0  0  0  0  0  0  0  0
    1.2033   -2.6935    0.0000 C   0  0  0  0  0  0  0  0  0  0  0  0
    1.8151   -4.0630    0.0000 C   0  0  0  0  0  0  0  0  0  0  0  0
   -0.2887   -2.5385    0.0000 C   0  0  0  0  0  0  0  0  0  0  0  0
   -1.1689   -3.7532    0.0000 O   0  0  0  0  0  0  0  0  0  0  0  0
   -0.9006   -1.1690    0.0000 O   0  0  0  0  0  0  0  0  0  0  0  0
   -2.3925   -1.0141    0.0000 C   0  0  0  0  0  0  0  0  0  0  0  0
   -3.2727   -2.2287    0.0000 C   0  0  0  0  0  0  0  0  0  0  0  0
   -4.7647   -2.0738    0.0000 C   0  0  0  0  0  0  0  0  0  0  0  0
   -5.6448   -3.2884    0.0000 O   0  0  0  0  0  0  0  0  0  0  0  0
   -5.3765   -0.7042    0.0000 C   0  0  0  0  0  0  0  0  0  0  0  0
   -4.4963    0.5104    0.0000 C   0  0  0  0  0  0  0  0  0  0  0  0
   -5.1082    1.8800    0.0000 C   0  0  0  0  0  0  0  0  0  0  0  0
   -4.2280    3.0946    0.0000 C   0  0  0  0  0  0  0  0  0  0  0  0
   -2.7360    2.9397    0.0000 C   0  0  0  0  0  0  0  0  0  0  0  0
   -1.8559    4.1543    0.0000 C   0  0  0  0  0  0  0  0  0  0  0  0
   -2.1242    1.5701    0.0000 C   0  0  0  0  0  0  0  0  0  0  0  0
   -0.6322    1.4152    0.0000 C   0  0  0  0  0  0  0  0  0  0  0  0
    0.2479    2.6298    0.0000 C   0  0  0  0  0  0  0  0  0  0  0  0
    1.7399    2.4749    0.0000 C   0  0  0  0  0  0  0  0  0  0  0  0
    2.6201    3.6895    0.0000 O   0  0  0  0  0  0  0  0  0  0  0  0
    2.3517    1.1054    0.0000 C   0  0  0  0  0  0  0  0  0  0  0  0
    3.8437    0.9504    0.0000 C   0  0  0  0  0  0  0  0  0  0  0  0
    4.7239    2.1651    0.0000 O   0  0  0  0  0  0  0  0  0  0  0  0
    4.4555   -0.4191    0.0000 C   0  0  0  0  0  0  0  0  0  0  0  0
    5.9475   -0.5740    0.0000 C   0  0  0  0  0  0  0  0  0  0  0  0
    6.8277    0.6406    0.0000 O   0  0  0  0  0  0  0  0  0  0  0  0
    6.5593   -1.9436    0.0000 O   0  0  0  0  0  0  0  0  0  0  0  0
   -3.0044    0.3555    0.0000 C   0  0  0  0  0  0  0  0  0  0  0  0
  1  2  1  0
  2  3  1  0
  3  4  1  6
  3  5  1  0
  5  6  2  0
  5  7  1  0
  8  7  1  1
  8  9  1  0
  9 10  1  0
 10 11  1  6
 10 12  1  0
 12 13  2  0
 13 14  1  0
 14 15  2  0
 15 16  1  0
 16 17  1  6
 16 18  1  0
 18 19  1  6
 19 20  1  0
 20 21  1  0
 21 22  1  1
 21 23  1  0
 23 24  1  0
 24 25  1  1
 24 26  1  0
 26 27  1  0
 27 28  2  0
 27 29  1  0
 18 30  1  0
 30  8  1  0
 30 13  1  1
M  END
>  <zinc_id>  (1) 
ZINC000003798763

>  <smiles>  (1) 
CC[C@H](C)C(=O)O[C@H]1C[C@H](O)C=C2C=C[C@H](C)[C@H](CC[C@@H](O)C[C@@H](O)CC(=O)O)[C@H]21

$$$$
