
     RDKit          3D

 12 12  0  0  0  0  0  0  0  0999 V2000
   -2.1012    1.9408    0.6273 C   0  0  0  0  0  0  0  0  0  0  0  0
   -2.1622    0.4463    0.7791 C   0  0  0  0  0  0  0  0  0  0  0  0
   -1.5831   -0.2518   -0.3439 N   0  0  0  0  0  0  0  0  0  0  0  0
   -2.1585   -1.5939   -0.3556 C   0  0  0  0  0  0  0  0  0  0  0  0
   -1.8177    0.4460   -1.5928 C   0  0  0  0  0  0  0  0  0  0  0  0
   -0.1820   -0.4096   -0.1847 C   0  0  0  0  0  0  0  0  0  0  0  0
    0.4566   -1.6273   -0.1554 C   0  0  0  0  0  0  0  0  0  0  0  0
    1.8180   -1.6823    0.0030 C   0  0  0  0  0  0  0  0  0  0  0  0
    2.5384   -0.5350    0.1313 C   0  0  0  0  0  0  0  0  0  0  0  0
    1.9200    0.6834    0.1045 C   0  0  0  0  0  0  0  0  0  0  0  0
    2.7087    1.8315    0.2409 O   0  0  0  0  0  0  0  0  0  0  0  0
    0.5630    0.7519   -0.0529 C   0  0  0  0  0  0  0  0  0  0  0  0
  1  2  1  0
  2  3  1  0
  3  4  1  0
  3  5  1  0
  3  6  1  0
  6  7  2  0
  7  8  1  0
  8  9  2  0
  9 10  1  0
 10 11  1  0
 10 12  2  0
 12  6  1  0
M  CHG  1   3   1
M  END
>  <zinc_id>  (1) 
ZINC000000001341

>  <smiles>  (1) 
CC[N+](C)(C)c1cccc(O)c1

$$$$
