
     RDKit          3D

 22 26  0  0  0  0  0  0  0  0999 V2000
    5.0755    0.2367    0.5617 C   0  0  0  0  0  0  0  0  0  0  0  0
    3.7579    0.5966    0.8271 O   0  0  0  0  0  0  0  0  0  0  0  0
    2.6540   -0.0848    0.3636 C   0  0  0  0  0  0  0  0  0  0  0  0
    2.7587   -1.2195   -0.4295 C   0  0  0  0  0  0  0  0  0  0  0  0
    1.6140   -1.8952   -0.8869 C   0  0  0  0  0  0  0  0  0  0  0  0
    0.3590   -1.4167   -0.5385 C   0  0  0  0  0  0  0  0  0  0  0  0
    0.3044   -0.3169    0.2253 C   0  0  0  0  0  0  0  0  0  0  0  0
    1.3917    0.3953    0.7122 C   0  0  0  0  0  0  0  0  0  0  0  0
    0.9126    1.4490    1.4600 O   0  0  0  0  0  0  0  0  0  0  0  0
   -0.4660    1.7714    0.8862 C   0  0  1  0  0  0  0  0  0  0  0  0
    0.1411    2.1503   -0.5415 C   0  0  0  0  0  0  0  0  0  0  0  0
    1.0843    2.8935   -0.6018 O   0  0  0  0  0  0  0  0  0  0  0  0
   -0.4422    1.6022   -1.7571 C   0  0  0  0  0  0  0  0  0  0  0  0
   -1.7834    1.2577   -1.5482 C   0  0  0  0  0  0  0  0  0  0  0  0
   -2.1358    0.3265   -0.3009 C   0  0  1  0  0  0  0  0  0  0  0  0
   -2.1282   -1.1164   -1.1306 C   0  0  1  0  0  0  0  0  0  0  0  0
   -0.8907   -1.9775   -0.8297 C   0  0  0  0  0  0  0  0  0  0  0  0
   -2.9544   -1.7534    0.0320 N   0  0  0  0  0  0  0  0  0  0  0  0
   -4.2985   -1.3029   -0.1005 C   0  0  0  0  0  0  0  0  0  0  0  0
   -2.4454   -1.5142    1.2836 C   0  0  0  0  0  0  0  0  0  0  0  0
   -1.6600   -0.3412    1.7207 C   0  0  0  0  0  0  0  0  0  0  0  0
   -0.8486    0.2595    0.5926 C   0  0  1  0  0  0  0  0  0  0  0  0
  1  2  1  0
  2  3  1  0
  3  4  2  0
  4  5  1  0
  5  6  2  0
  6  7  1  0
  7  8  2  0
  8  9  1  0
 10  9  1  1
 10 11  1  0
 11 12  2  0
 11 13  1  0
 13 14  1  0
 15 14  1  6
 15 16  1  0
 16 17  1  1
 16 18  1  0
 18 19  1  0
 18 20  1  0
 20 21  1  0
 22 21  1  1
  8  3  1  0
 22 10  1  0
 17  6  1  0
 22  7  1  0
 22 15  1  0
M  END
>  <zinc_id>  (1) 
ZINC000001280665

>  <smiles>  (1) 
COc1ccc2c3c1O[C@H]1C(=O)CC[C@H]4[C@@H](C2)N(C)CC[C@]314

$$$$
