
     RDKit          2D

 27 30  0  0  0  0  0  0  0  0999 V2000
   -4.7530   -2.7474    0.0000 C   0  0  0  0  0  0  0  0  0  0  0  0
   -3.4889   -1.9399    0.0000 C   0  0  0  0  0  0  0  0  0  0  0  0
   -2.0926   -2.4880    0.0000 C   0  0  0  0  0  0  0  0  0  0  0  0
   -1.1399   -1.3294    0.0000 C   0  0  0  0  0  0  0  0  0  0  0  0
    0.3586   -1.2622    0.0000 C   0  0  0  0  0  0  0  0  0  0  0  0
    1.1661   -2.5263    0.0000 C   0  0  0  0  0  0  0  0  0  0  0  0
    2.6646   -2.4591    0.0000 C   0  0  0  0  0  0  0  0  0  0  0  0
    3.3556   -1.1277    0.0000 C   0  0  0  0  0  0  0  0  0  0  0  0
    4.8541   -1.0605    0.0000 C   0  0  0  0  0  0  0  0  0  0  0  0
    5.5451    0.2708    0.0000 C   0  0  0  0  0  0  0  0  0  0  0  0
    7.0436    0.3381    0.0000 O   0  0  0  0  0  0  0  0  0  0  0  0
    4.7376    1.5350    0.0000 C   0  0  0  0  0  0  0  0  0  0  0  0
    3.2391    1.4677    0.0000 C   0  0  0  0  0  0  0  0  0  0  0  0
    2.5481    0.1364    0.0000 C   0  0  0  0  0  0  0  0  0  0  0  0
    2.1659    0.9354    0.0000 C   0  0  0  0  0  0  0  0  0  0  0  0
    1.0496    0.0691    0.0000 C   0  0  0  0  0  0  0  0  0  0  0  0
    1.3588    0.8992    0.0000 F   0  0  0  0  0  0  0  0  0  0  0  0
    0.2422    1.3333    0.0000 C   0  0  0  0  0  0  0  0  0  0  0  0
    0.9332    2.6646    0.0000 O   0  0  0  0  0  0  0  0  0  0  0  0
   -1.2563    1.2660    0.0000 C   0  0  0  0  0  0  0  0  0  0  0  0
   -1.9474   -0.0653    0.0000 C   0  0  0  0  0  0  0  0  0  0  0  0
   -2.8825    1.1075    0.0000 C   0  0  0  0  0  0  0  0  0  0  0  0
   -3.3991   -0.4426    0.0000 C   0  0  0  0  0  0  0  0  0  0  0  0
   -4.5577    0.5101    0.0000 C   0  0  0  0  0  0  0  0  0  0  0  0
   -5.9621   -0.0169    0.0000 O   0  0  0  0  0  0  0  0  0  0  0  0
   -4.3119    1.9898    0.0000 C   0  0  0  0  0  0  0  0  0  0  0  0
   -5.4705    2.9425    0.0000 O   0  0  0  0  0  0  0  0  0  0  0  0
  2  1  1  1
  2  3  1  0
  4  3  1  6
  4  5  1  0
  5  6  1  1
  6  7  1  0
  7  8  1  0
  8  9  2  0
  9 10  1  0
 10 11  2  0
 10 12  1  0
 12 13  2  0
 13 14  1  0
 14 15  1  6
 14 16  1  0
 16 17  1  1
 16 18  1  0
 18 19  1  6
 18 20  1  0
 20 21  1  0
 21 22  1  6
 21 23  1  0
 23 24  1  6
 24 25  2  0
 24 26  1  0
 26 27  1  0
 23  2  1  0
 21  4  1  0
 16  5  1  0
 14  8  1  0
M  END
>  <zinc_id>  (1) 
ZINC000004212854

>  <smiles>  (1) 
C[C@@H]1C[C@H]2[C@@H]3CCC4=CC(=O)C=C[C@]4(C)[C@@]3(F)[C@@H](O)C[C@]2(C)[C@H]1C(=O)CO

$$$$
