
     RDKit          3D

 19 22  0  0  0  0  0  0  0  0999 V2000
    2.6029    2.3192    0.2495 N   0  0  0  0  0  0  0  0  0  0  0  0
    1.2193    2.1731   -0.1779 C   0  0  0  0  0  0  0  0  0  0  0  0
    0.3561    3.0489   -0.3552 N   0  0  0  0  0  0  0  0  0  0  0  0
   -0.8838    2.5869   -0.7658 C   0  0  0  0  0  0  0  0  0  0  0  0
   -0.5129    1.1265   -1.3533 C   0  0  2  0  0  0  0  0  0  0  0  0
   -1.5586    0.2997   -0.4986 C   0  0  0  0  0  0  0  0  0  0  0  0
   -2.5553    1.0701   -0.0293 C   0  0  0  0  0  0  0  0  0  0  0  0
   -3.5740    0.5012    0.7146 C   0  0  0  0  0  0  0  0  0  0  0  0
   -3.5866   -0.8476    0.9853 C   0  0  0  0  0  0  0  0  0  0  0  0
   -2.5516   -1.6112    0.4913 C   0  0  0  0  0  0  0  0  0  0  0  0
   -1.5402   -1.0412   -0.2480 C   0  0  0  0  0  0  0  0  0  0  0  0
   -0.5380   -2.0861   -0.6467 C   0  0  0  0  0  0  0  0  0  0  0  0
    0.8158   -1.6227   -0.1485 C   0  0  0  0  0  0  0  0  0  0  0  0
    1.5683   -2.6832    0.2829 C   0  0  0  0  0  0  0  0  0  0  0  0
    2.8392   -2.4701    0.7930 C   0  0  0  0  0  0  0  0  0  0  0  0
    3.2953   -1.1861    0.8444 C   0  0  0  0  0  0  0  0  0  0  0  0
    2.5729   -0.0965    0.4221 C   0  0  0  0  0  0  0  0  0  0  0  0
    1.2988   -0.3488   -0.0854 C   0  0  0  0  0  0  0  0  0  0  0  0
    0.7324    0.8679   -0.4744 N   0  0  0  0  0  0  0  0  0  0  0  0
  1  2  1  0
  2  3  2  0
  3  4  1  0
  5  4  1  1
  5  6  1  0
  6  7  2  0
  7  8  1  0
  8  9  2  0
  9 10  1  0
 10 11  2  0
 11 12  1  0
 12 13  1  0
 13 14  2  0
 14 15  1  0
 15 16  2  0
 16 17  1  0
 17 18  2  0
 18 19  1  0
 19  2  1  0
 19  5  1  0
 11  6  1  0
 18 13  1  0
M  END
>  <zinc_id>  (1) 
ZINC000000006157

>  <smiles>  (1) 
NC1=NC[C@@H]2c3ccccc3Cc3ccccc3N12

$$$$
