
     RDKit          3D

 34 40  0  0  0  0  0  0  0  0999 V2000
   -3.0720   -1.5203   -1.3571 C   0  0  0  0  0  0  0  0  0  0  0  0
   -2.8296   -1.4790   -0.7468 O   0  0  0  0  0  0  0  0  0  0  0  0
   -1.7236   -0.7924   -0.2766 C   0  0  2  0  0  0  0  0  0  0  0  0
   -1.4272   -0.9350    1.0653 C   0  0  0  0  0  0  0  0  0  0  0  0
   -0.1079   -0.4821    1.5832 C   0  0  0  0  0  0  0  0  0  0  0  0
    0.4715    0.1385    0.2848 C   0  0  1  0  0  0  0  0  0  0  0  0
   -0.4076    1.2276   -0.0192 C   0  0  0  0  0  0  0  0  0  0  0  0
   -1.6987    0.6925   -0.8869 C   0  0  2  0  0  0  0  0  0  0  0  0
   -2.8312    1.4061   -0.0483 C   0  0  2  0  0  0  0  0  0  0  0  0
   -2.6291    1.4596    1.4035 C   0  0  0  0  0  0  0  0  0  0  0  0
   -4.1051    1.0211   -0.3924 O   0  0  0  0  0  0  0  0  0  0  0  0
   -2.8113    2.8960   -0.4879 C   0  0  0  0  0  0  0  0  0  0  0  0
   -1.5269    3.5830   -0.2320 C   0  0  0  0  0  0  0  0  0  0  0  0
   -3.9706    3.6258    0.1565 C   0  0  0  0  0  0  0  0  0  0  0  0
   -3.0657    2.9676   -1.9990 C   0  0  0  0  0  0  0  0  0  0  0  0
    1.8697    0.7604    0.6994 C   0  0  1  0  0  0  0  0  0  0  0  0
    2.8998   -0.4828    0.6158 C   0  0  0  0  0  0  0  0  0  0  0  0
    2.3208   -1.7817    0.7947 C   0  0  0  0  0  0  0  0  0  0  0  0
    2.7665   -2.8551    1.5786 C   0  0  0  0  0  0  0  0  0  0  0  0
    2.0188   -4.0150    1.6335 C   0  0  0  0  0  0  0  0  0  0  0  0
    0.8223   -4.1369    0.9209 C   0  0  0  0  0  0  0  0  0  0  0  0
    0.0401   -5.2906    0.9519 O   0  0  0  0  0  0  0  0  0  0  0  0
    0.3845   -3.0516    0.1377 C   0  0  0  0  0  0  0  0  0  0  0  0
    1.1649   -2.0146    0.1562 C   0  0  0  0  0  0  0  0  0  0  0  0
    0.6828   -0.9313   -0.6589 C   0  0  2  0  0  0  0  0  0  0  0  0
    1.5719   -0.7299   -1.8218 C   0  0  0  0  0  0  0  0  0  0  0  0
    2.5519    0.3583   -1.6244 C   0  0  0  0  0  0  0  0  0  0  0  0
    2.1841    1.2857   -0.7525 N   0  0  0  0  0  0  0  0  0  0  0  0
    2.2044    2.6280   -0.8186 C   0  0  0  0  0  0  0  0  0  0  0  0
    3.3180    3.3373   -0.1114 C   0  0  0  0  0  0  0  0  0  0  0  0
    3.3263    3.0476    1.4085 C   0  0  0  0  0  0  0  0  0  0  0  0
    2.9529    4.4360    0.7887 C   0  0  0  0  0  0  0  0  0  0  0  0
   -0.6497   -1.5063   -1.3163 C   0  0  1  0  0  0  0  0  0  0  0  0
   -0.6950   -2.8666   -0.6288 O   0  0  0  0  0  0  0  0  0  0  0  0
  1  2  1  0
  3  2  1  1
  3  4  1  0
  4  5  1  0
  6  5  1  1
  6  7  1  0
  8  7  1  1
  8  9  1  0
  9 10  1  1
  9 11  1  0
  9 12  1  0
 12 13  1  0
 12 14  1  0
 12 15  1  0
  6 16  1  0
 16 17  1  6
 17 18  1  0
 18 19  2  0
 19 20  1  0
 20 21  2  0
 21 22  1  0
 21 23  1  0
 23 24  2  0
 24 25  1  0
 25 26  1  6
 26 27  1  0
 27 28  1  0
 28 29  1  0
 29 30  1  0
 30 31  1  0
 31 32  1  0
 25 33  1  0
 33 34  1  1
  8  3  1  0
 28 16  1  0
 32 30  1  0
 33  3  1  0
 25  6  1  0
 24 18  1  0
 34 23  1  0
M  END
>  <zinc_id>  (1) 
ZINC000001319780

>  <smiles>  (1) 
CO[C@]12CC[C@@]3(C[C@@H]1[C@](C)(O)C(C)(C)C)[C@H]1Cc4ccc(O)c5c4[C@@]3(CCN1CC1CC1)[C@H]2O5

$$$$
