
     RDKit          3D

 25 27  0  0  0  0  0  0  0  0999 V2000
   -1.7566    0.9391   -1.4301 C   0  0  0  0  0  0  0  0  0  0  0  0
   -1.9485    0.4527   -0.1025 C   0  0  0  0  0  0  0  0  0  0  0  0
   -3.2800    0.3548    0.3703 C   0  0  0  0  0  0  0  0  0  0  0  0
   -4.2966    0.7264   -0.4522 O   0  0  0  0  0  0  0  0  0  0  0  0
   -5.6284    0.7958   -0.4424 C   0  0  0  0  0  0  0  0  0  0  0  0
   -6.4162   -0.4497   -0.2889 C   0  0  0  0  0  0  0  0  0  0  0  0
   -6.1643   -1.0999    0.8848 F   0  0  0  0  0  0  0  0  0  0  0  0
   -6.1086   -1.3097   -1.3557 F   0  0  0  0  0  0  0  0  0  0  0  0
   -7.7727   -0.1527   -0.3944 F   0  0  0  0  0  0  0  0  0  0  0  0
   -3.4629   -0.1161    1.6551 C   0  0  0  0  0  0  0  0  0  0  0  0
   -2.4016   -0.4714    2.4339 C   0  0  0  0  0  0  0  0  0  0  0  0
   -1.1609   -0.3672    1.9588 N   0  0  0  0  0  0  0  0  0  0  0  0
   -0.9313    0.0824    0.7234 C   0  0  0  0  0  0  0  0  0  0  0  0
    0.4617    0.1753    0.2543 C   0  0  0  0  0  0  0  0  0  0  0  0
    1.6178   -0.3821    1.5570 S   0  0  0  0  0  0  0  0  0  0  0  0
    1.5978    0.7974    2.5528 O   0  0  0  0  0  0  0  0  0  0  0  0
    3.2100   -0.1725    0.7453 C   0  0  0  0  0  0  0  0  0  0  0  0
    4.0127    0.8866    0.7085 N   0  0  0  0  0  0  0  0  0  0  0  0
    5.1130    0.6201   -0.0131 C   0  0  0  0  0  0  0  0  0  0  0  0
    6.2271    1.3647   -0.3475 C   0  0  0  0  0  0  0  0  0  0  0  0
    7.2295    0.8215   -1.1222 C   0  0  0  0  0  0  0  0  0  0  0  0
    7.1086   -0.4783   -1.5621 C   0  0  0  0  0  0  0  0  0  0  0  0
    5.9876   -1.1956   -1.2131 C   0  0  0  0  0  0  0  0  0  0  0  0
    4.9599   -0.6812   -0.4355 C   0  0  0  0  0  0  0  0  0  0  0  0
    3.8030   -1.1403    0.0345 N   0  0  0  0  0  0  0  0  0  0  0  0
  1  2  1  0
  2  3  2  0
  3  4  1  0
  4  5  1  0
  5  6  1  0
  6  7  1  0
  6  8  1  0
  6  9  1  0
  3 10  1  0
 10 11  2  0
 11 12  1  0
 12 13  2  0
 13 14  1  0
 15 14  1  6
 15 16  2  0
 15 17  1  0
 17 18  2  0
 18 19  1  0
 19 20  2  0
 20 21  1  0
 21 22  2  0
 22 23  1  0
 23 24  2  0
 24 25  1  0
 13  2  1  0
 25 17  1  0
 24 19  1  0
M  END
>  <zinc_id>  (1) 
ZINC000003830986

>  <smiles>  (1) 
Cc1c(OCC(F)(F)F)ccnc1C[S@](=O)c1nc2ccccc2[nH]1

$$$$
