
     RDKit          3D

  7  6  0  0  0  0  0  0  0  0999 V2000
   -0.3042    1.5392   -0.1518 O   0  0  0  0  0  0  0  0  0  0  0  0
   -0.7913    0.1531    0.1084 S   0  0  0  0  0  0  0  0  0  0  0  0
   -1.4089   -0.3814   -1.1745 O   0  0  0  0  0  0  0  0  0  0  0  0
   -2.0011    0.2601    1.2943 O   0  0  0  0  0  0  0  0  0  0  0  0
    0.4570   -0.9172    0.7342 C   0  0  0  0  0  0  0  0  0  0  0  0
    1.6043   -1.1134   -0.2077 C   0  0  0  0  0  0  0  0  0  0  0  0
    2.4442    0.4596   -0.6030 S   0  0  0  0  0  0  0  0  0  0  0  0
  1  2  2  0
  2  3  2  0
  2  4  1  0
  2  5  1  0
  5  6  1  0
  6  7  1  0
M  END
>  <zinc_id>  (1) 
ZINC000003831040

>  <smiles>  (1) 
O=S(=O)(O)CCS

$$$$
