
     RDKit          3D

 12 12  0  0  0  0  0  0  0  0999 V2000
    3.3529    0.1051   -0.1760 C   0  0  0  0  0  0  0  0  0  0  0  0
    2.7586   -0.6089   -1.1914 N   0  0  0  0  0  0  0  0  0  0  0  0
    1.3754   -1.1520   -0.7265 C   0  0  1  0  0  0  0  0  0  0  0  0
    2.0163   -2.0758    0.4614 C   0  0  0  0  0  0  0  0  0  0  0  0
    1.0158    0.1563    0.3593 C   0  0  1  0  0  0  0  0  0  0  0  0
    1.0659    1.2220   -0.7577 O   0  0  0  0  0  0  0  0  0  0  0  0
   -0.5750    0.0350    0.2927 C   0  0  0  0  0  0  0  0  0  0  0  0
   -1.2363    0.8892    1.1081 C   0  0  0  0  0  0  0  0  0  0  0  0
   -2.6222    0.9276    1.1807 C   0  0  0  0  0  0  0  0  0  0  0  0
   -3.3129    0.0383    0.3688 C   0  0  0  0  0  0  0  0  0  0  0  0
   -2.6063   -0.8122   -0.4443 C   0  0  0  0  0  0  0  0  0  0  0  0
   -1.2323   -0.8057   -0.4750 C   0  0  0  0  0  0  0  0  0  0  0  0
  1  2  1  0
  2  3  1  0
  3  4  1  1
  3  5  1  0
  5  6  1  6
  5  7  1  0
  7  8  2  0
  8  9  1  0
  9 10  2  0
 10 11  1  0
 11 12  2  0
 12  7  1  0
M  END
>  <zinc_id>  (1) 
ZINC000000020259

>  <smiles>  (1) 
CN[C@@H](C)[C@@H](O)c1ccccc1

$$$$
