
     RDKit          3D

 28 31  0  0  0  0  0  0  0  0999 V2000
    6.1033   -1.8157   -0.7145 O   0  0  0  0  0  0  0  0  0  0  0  0
    5.5326   -1.4569    0.3317 C   0  0  0  0  0  0  0  0  0  0  0  0
    6.2611   -1.3515    1.4947 O   0  0  0  0  0  0  0  0  0  0  0  0
    4.1012   -1.1471    0.3382 C   0  0  0  0  0  0  0  0  0  0  0  0
    3.4425   -0.7486    1.4760 C   0  0  0  0  0  0  0  0  0  0  0  0
    2.0953   -0.4732    1.4106 C   0  0  0  0  0  0  0  0  0  0  0  0
    1.3574   -0.5736    0.2603 C   0  0  0  0  0  0  0  0  0  0  0  0
   -0.0335   -0.2912    0.1944 N   0  0  0  0  0  0  0  0  0  0  0  0
   -1.0372   -1.1569    0.3921 N   0  0  0  0  0  0  0  0  0  0  0  0
   -2.2106   -0.5226    0.2456 C   0  0  0  0  0  0  0  0  0  0  0  0
   -3.5319   -1.1198    0.3815 C   0  0  0  0  0  0  0  0  0  0  0  0
   -4.6756   -0.3710    0.2087 C   0  0  0  0  0  0  0  0  0  0  0  0
   -5.9379   -0.9058    0.3304 C   0  0  0  0  0  0  0  0  0  0  0  0
   -6.0946   -2.2383    0.6360 C   0  0  0  0  0  0  0  0  0  0  0  0
   -4.9792   -3.0121    0.8145 C   0  0  0  0  0  0  0  0  0  0  0  0
   -3.7102   -2.4520    0.6870 C   0  0  0  0  0  0  0  0  0  0  0  0
   -2.5705   -3.2272    0.8659 O   0  0  0  0  0  0  0  0  0  0  0  0
   -1.9180    0.7532   -0.0468 N   0  0  0  0  0  0  0  0  0  0  0  0
   -0.5604    0.9103   -0.0817 C   0  0  0  0  0  0  0  0  0  0  0  0
    0.1545    2.1492   -0.3654 C   0  0  0  0  0  0  0  0  0  0  0  0
    1.5260    2.2438   -0.3859 C   0  0  0  0  0  0  0  0  0  0  0  0
    2.1894    3.4213   -0.6556 C   0  0  0  0  0  0  0  0  0  0  0  0
    1.4536    4.5575   -0.9168 C   0  0  0  0  0  0  0  0  0  0  0  0
    0.0810    4.5069   -0.9063 C   0  0  0  0  0  0  0  0  0  0  0  0
   -0.5551    3.3016   -0.6303 C   0  0  0  0  0  0  0  0  0  0  0  0
   -1.9363    3.2598   -0.6218 O   0  0  0  0  0  0  0  0  0  0  0  0
    2.0613   -0.9821   -0.8791 C   0  0  0  0  0  0  0  0  0  0  0  0
    3.3918   -1.2579   -0.8310 C   0  0  0  0  0  0  0  0  0  0  0  0
  1  2  2  0
  2  3  1  0
  2  4  1  0
  4  5  2  0
  5  6  1  0
  6  7  2  0
  7  8  1  0
  8  9  1  0
  9 10  2  0
 10 11  1  0
 11 12  2  0
 12 13  1  0
 13 14  2  0
 14 15  1  0
 15 16  2  0
 16 17  1  0
 10 18  1  0
 18 19  2  0
 19 20  1  0
 20 21  2  0
 21 22  1  0
 22 23  2  0
 23 24  1  0
 24 25  2  0
 25 26  1  0
  7 27  1  0
 27 28  2  0
 28  4  1  0
 19  8  1  0
 25 20  1  0
 16 11  1  0
M  END
>  <zinc_id>  (1) 
ZINC000001481815

>  <smiles>  (1) 
O=C(O)c1ccc(-n2nc(-c3ccccc3O)nc2-c2ccccc2O)cc1

$$$$
