
     RDKit          3D

 30 32  0  0  0  0  0  0  0  0999 V2000
    4.9951   -1.8967   -3.8989 C   0  0  0  0  0  0  0  0  0  0  0  0
    4.3216   -1.2026   -3.0581 O   0  0  0  0  0  0  0  0  0  0  0  0
    4.5945   -0.8513   -1.7732 N   0  0  0  0  0  0  0  0  0  0  0  0
    3.6438   -0.5490   -0.9467 C   0  0  0  0  0  0  0  0  0  0  0  0
    2.2766   -0.5850   -1.3911 C   0  0  0  0  0  0  0  0  0  0  0  0
    2.1141   -0.9164   -2.6228 O   0  0  0  0  0  0  0  0  0  0  0  0
    1.1047   -0.2991   -0.6328 N   0  0  0  0  0  0  0  0  0  0  0  0
   -0.2176   -0.4431   -1.4940 C   0  0  2  0  0  0  0  0  0  0  0  0
   -0.7563    1.0391   -1.3286 C   0  0  0  0  0  0  0  0  0  0  0  0
   -0.3216    2.0192   -1.8781 O   0  0  0  0  0  0  0  0  0  0  0  0
   -1.7341    0.6165   -0.4327 N   0  0  0  0  0  0  0  0  0  0  0  0
   -2.8417    0.9280    0.3911 C   0  0  0  0  0  0  0  0  0  0  0  0
   -3.8344    1.8540   -0.2139 C   0  0  0  0  0  0  0  0  0  0  0  0
   -4.8516    2.2299    0.4617 O   0  0  0  0  0  0  0  0  0  0  0  0
   -3.7211    2.3415   -1.4856 O   0  0  0  0  0  0  0  0  0  0  0  0
   -3.0237    0.5026    1.6404 C   0  0  0  0  0  0  0  0  0  0  0  0
   -4.2486    0.9111    2.3867 C   0  0  0  0  0  0  0  0  0  0  0  0
   -5.0102   -0.1452    2.7957 O   0  0  0  0  0  0  0  0  0  0  0  0
   -5.5805   -1.0958    2.0280 C   0  0  0  0  0  0  0  0  0  0  0  0
   -6.3979   -2.2032    2.6276 C   0  0  0  0  0  0  0  0  0  0  0  0
   -5.4655   -1.1128    0.7906 O   0  0  0  0  0  0  0  0  0  0  0  0
   -2.0686   -0.3609    2.3653 C   0  0  0  0  0  0  0  0  0  0  0  0
   -0.6211   -0.7120    1.3452 S   0  0  0  0  0  0  0  0  0  0  0  0
   -1.3427   -0.8652   -0.3732 C   0  0  2  0  0  0  0  0  0  0  0  0
    4.0533   -0.1721    0.4308 C   0  0  0  0  0  0  0  0  0  0  0  0
    3.1082    0.1849    1.3595 C   0  0  0  0  0  0  0  0  0  0  0  0
    4.0594    0.5120    2.7367 S   0  0  0  0  0  0  0  0  0  0  0  0
    5.5850    0.1801    2.0610 C   0  0  0  0  0  0  0  0  0  0  0  0
    6.8880    0.2541    2.6887 N   0  0  0  0  0  0  0  0  0  0  0  0
    5.2928   -0.1626    0.8222 N   0  0  0  0  0  0  0  0  0  0  0  0
  1  2  1  0
  2  3  1  0
  3  4  2  0
  4  5  1  0
  5  6  2  0
  5  7  1  0
  8  7  1  1
  8  9  1  0
  9 10  2  0
  9 11  1  0
 11 12  1  0
 12 13  1  0
 13 14  2  0
 13 15  1  0
 12 16  2  0
 16 17  1  0
 17 18  1  0
 18 19  1  0
 19 20  1  0
 19 21  2  0
 16 22  1  0
 22 23  1  0
 24 23  1  1
  4 25  1  0
 25 26  2  0
 26 27  1  0
 27 28  1  0
 28 29  1  0
 28 30  2  0
 24  8  1  0
 30 25  1  0
 24 11  1  0
M  END
>  <zinc_id>  (1) 
ZINC000004468780

>  <smiles>  (1) 
CO/N=C(\C(=O)N[C@@H]1C(=O)N2C(C(=O)O)=C(COC(C)=O)CS[C@H]12)c1csc(N)n1

$$$$
