
     RDKit          3D

 19 20  0  0  0  0  0  0  0  0999 V2000
    1.1502   -0.9069    0.9478 C   0  0  0  0  0  0  0  0  0  0  0  0
    1.0868    0.6699    0.3971 C   0  0  2  0  0  0  0  0  0  0  0  0
    0.3147    0.2499   -1.0223 C   0  0  0  0  0  0  0  0  0  0  0  0
   -0.9143   -0.3635   -0.6199 N   0  0  0  0  0  0  0  0  0  0  0  0
   -1.1076   -1.6484   -0.3832 C   0  0  0  0  0  0  0  0  0  0  0  0
   -2.3752   -1.8464   -0.0331 N   0  0  0  0  0  0  0  0  0  0  0  0
   -2.9903   -0.6646   -0.0498 C   0  0  0  0  0  0  0  0  0  0  0  0
   -2.0664    0.2751   -0.4212 C   0  0  0  0  0  0  0  0  0  0  0  0
   -2.4721    1.5654   -0.5069 N   0  0  0  0  0  0  0  0  0  0  0  0
   -3.7430    1.9124   -0.2356 C   0  0  0  0  0  0  0  0  0  0  0  0
   -4.6577    0.9774    0.1328 N   0  0  0  0  0  0  0  0  0  0  0  0
   -4.3167   -0.3187    0.2357 C   0  0  0  0  0  0  0  0  0  0  0  0
   -5.2622   -1.2967    0.6182 N   0  0  0  0  0  0  0  0  0  0  0  0
    2.4708    0.5877   -0.2596 O   0  0  0  0  0  0  0  0  0  0  0  0
    3.3297    0.2982    0.7873 C   0  0  0  0  0  0  0  0  0  0  0  0
    5.0083    0.1775    0.1191 P   0  0  0  0  0  0  0  0  0  0  0  0
    5.4697    1.5868   -0.2381 O   0  0  0  0  0  0  0  0  0  0  0  0
    6.0084   -0.4348    1.3425 O   0  0  0  0  0  0  0  0  0  0  0  0
    5.0667   -0.8202   -1.2489 O   0  0  0  0  0  0  0  0  0  0  0  0
  2  1  1  1
  2  3  1  0
  3  4  1  0
  4  5  1  0
  5  6  2  0
  6  7  1  0
  7  8  2  0
  8  9  1  0
  9 10  2  0
 10 11  1  0
 11 12  2  0
 12 13  1  0
  2 14  1  0
 14 15  1  0
 15 16  1  0
 16 17  2  0
 16 18  1  0
 16 19  1  0
  8  4  1  0
 12  7  1  0
M  END
>  <zinc_id>  (1) 
ZINC000001543475

>  <smiles>  (1) 
C[C@H](Cn1cnc2c(N)ncnc21)OCP(=O)(O)O

$$$$
