
     RDKit          3D

 14 15  0  0  0  0  0  0  0  0999 V2000
    3.7035   -1.2534    0.2977 C   0  0  0  0  0  0  0  0  0  0  0  0
    2.2952   -0.8475    0.1510 N   0  0  0  0  0  0  0  0  0  0  0  0
    1.4195   -1.6451   -0.4370 N   0  0  0  0  0  0  0  0  0  0  0  0
    0.1506   -1.3109   -0.5840 N   0  0  0  0  0  0  0  0  0  0  0  0
   -0.2945   -0.1364   -0.1354 C   0  0  0  0  0  0  0  0  0  0  0  0
   -1.5453    0.4483   -0.1596 C   0  0  0  0  0  0  0  0  0  0  0  0
   -2.7484   -0.1260   -0.7206 C   0  0  0  0  0  0  0  0  0  0  0  0
   -3.9872    0.5562   -0.6957 N   0  0  0  0  0  0  0  0  0  0  0  0
   -2.6997   -1.2585   -1.2448 O   0  0  0  0  0  0  0  0  0  0  0  0
   -1.3792    1.6434    0.4458 N   0  0  0  0  0  0  0  0  0  0  0  0
   -0.0986    1.7921    0.8242 C   0  0  0  0  0  0  0  0  0  0  0  0
    0.5864    0.6841    0.4647 N   0  0  0  0  0  0  0  0  0  0  0  0
    1.8796    0.3464    0.6160 C   0  0  0  0  0  0  0  0  0  0  0  0
    2.7181    1.1074    1.1777 O   0  0  0  0  0  0  0  0  0  0  0  0
  1  2  1  0
  2  3  1  0
  3  4  2  0
  4  5  1  0
  5  6  2  0
  6  7  1  0
  7  8  1  0
  7  9  2  0
  6 10  1  0
 10 11  2  0
 11 12  1  0
 12 13  1  0
 13 14  2  0
 13  2  1  0
 12  5  1  0
M  END
>  <zinc_id>  (1) 
ZINC000001482184

>  <smiles>  (1) 
Cn1nnc2c(C(N)=O)ncn2c1=O

$$$$
