
     RDKit          3D

 21 23  0  0  0  0  0  0  0  0999 V2000
    4.2635   -1.8398   -0.3713 C   0  0  0  0  0  0  0  0  0  0  0  0
    4.0543   -0.8976   -0.9439 C   0  0  0  0  0  0  0  0  0  0  0  0
    3.3709    0.2663   -0.2896 C   0  0  0  0  0  0  0  0  0  0  0  0
    4.0398    1.4093    0.1074 C   0  0  0  0  0  0  0  0  0  0  0  0
    3.3865    2.4597    0.7152 C   0  0  0  0  0  0  0  0  0  0  0  0
    2.0269    2.3859    0.9411 C   0  0  0  0  0  0  0  0  0  0  0  0
    1.3847    1.2456    0.5390 C   0  0  0  0  0  0  0  0  0  0  0  0
    0.0538    0.9281    0.6495 C   0  0  0  0  0  0  0  0  0  0  0  0
   -0.0800   -0.3256    0.0998 C   0  0  0  0  0  0  0  0  0  0  0  0
    1.0819   -0.7848   -0.3346 N   0  0  0  0  0  0  0  0  0  0  0  0
    2.0141    0.1776   -0.0717 C   0  0  0  0  0  0  0  0  0  0  0  0
   -1.5267   -0.8466    0.1415 C   0  0  2  0  0  0  0  0  0  0  0  0
   -1.4171   -2.2129   -0.3992 C   0  0  0  0  0  0  0  0  0  0  0  0
   -2.5911   -3.0725   -0.5204 C   0  0  0  0  0  0  0  0  0  0  0  0
   -2.3417    0.1168   -0.6154 C   0  0  0  0  0  0  0  0  0  0  0  0
   -3.7652   -0.0526   -0.7364 C   0  0  0  0  0  0  0  0  0  0  0  0
   -4.3815    0.7894   -1.5098 O   0  0  0  0  0  0  0  0  0  0  0  0
   -4.5927   -0.9750   -0.1572 O   0  0  0  0  0  0  0  0  0  0  0  0
   -1.8830   -0.7890    1.4721 O   0  0  0  0  0  0  0  0  0  0  0  0
   -1.9063    0.4875    1.9918 C   0  0  0  0  0  0  0  0  0  0  0  0
   -1.1909    1.5303    1.1674 C   0  0  0  0  0  0  0  0  0  0  0  0
  1  2  1  0
  2  3  1  0
  3  4  2  0
  4  5  1  0
  5  6  2  0
  6  7  1  0
  7  8  1  0
  8  9  2  0
  9 10  1  0
 10 11  1  0
  9 12  1  0
 12 13  1  6
 13 14  1  0
 12 15  1  0
 15 16  1  0
 16 17  2  0
 16 18  1  0
 12 19  1  0
 19 20  1  0
 20 21  1  0
 11  3  1  0
 11  7  2  0
 21  8  1  0
M  END
>  <zinc_id>  (1) 
ZINC000000057313

>  <smiles>  (1) 
CCc1cccc2c3c([nH]c12)[C@](CC)(CC(=O)O)OCC3

$$$$
