
     RDKit          3D

 19 19  0  0  0  0  0  0  0  0999 V2000
    1.2659    1.7989    2.4740 C   0  0  0  0  0  0  0  0  0  0  0  0
    0.3225    1.2301    1.8201 C   0  0  0  0  0  0  0  0  0  0  0  0
    0.2571   -0.0015    1.0582 C   0  0  0  0  0  0  0  0  0  0  0  0
   -0.2118    0.1064   -0.2755 C   0  0  1  0  0  0  0  0  0  0  0  0
    0.6286    1.0156   -1.3056 C   0  0  1  0  0  0  0  0  0  0  0  0
    0.5459    2.4411   -0.5582 C   0  0  0  0  0  0  0  0  0  0  0  0
    2.0492    0.6106   -0.8315 C   0  0  0  0  0  0  0  0  0  0  0  0
    3.1444    0.2911   -0.5008 C   0  0  0  0  0  0  0  0  0  0  0  0
    4.4759   -0.1178   -0.0916 C   0  0  0  0  0  0  0  0  0  0  0  0
    4.6340   -1.6332   -0.0400 C   0  0  0  0  0  0  0  0  0  0  0  0
   -0.4214   -1.1987   -0.9948 C   0  0  0  0  0  0  0  0  0  0  0  0
    0.1956   -1.4262   -2.0498 O   0  0  0  0  0  0  0  0  0  0  0  0
   -1.3375   -2.0647   -0.3666 N   0  0  0  0  0  0  0  0  0  0  0  0
   -2.4812   -1.5619    0.3629 C   0  0  0  0  0  0  0  0  0  0  0  0
   -3.3101   -2.3175    0.9283 O   0  0  0  0  0  0  0  0  0  0  0  0
   -2.5627   -0.1418    0.3696 N   0  0  0  0  0  0  0  0  0  0  0  0
   -3.7034    0.4968    1.0605 C   0  0  0  0  0  0  0  0  0  0  0  0
   -1.6114    0.6914   -0.2743 C   0  0  0  0  0  0  0  0  0  0  0  0
   -1.8796    1.7813   -0.7849 O   0  0  0  0  0  0  0  0  0  0  0  0
  1  2  2  0
  2  3  1  0
  4  3  1  1
  4  5  1  0
  5  6  1  1
  5  7  1  0
  7  8  3  0
  8  9  1  0
  9 10  1  0
  4 11  1  0
 11 12  2  0
 11 13  1  0
 13 14  1  0
 14 15  2  0
 14 16  1  0
 16 17  1  0
 16 18  1  0
 18 19  2  0
 18  4  1  0
M  END
>  <zinc_id>  (1) 
ZINC000003876068

>  <smiles>  (1) 
C=CC[C@@]1([C@@H](C)C#CCC)C(=O)NC(=O)N(C)C1=O

$$$$
