
     RDKit          3D

 29 31  0  0  0  0  0  0  0  0999 V2000
    5.6528    1.8725   -1.0020 C   0  0  0  0  0  0  0  0  0  0  0  0
    5.0421    0.8386   -0.6099 O   0  0  0  0  0  0  0  0  0  0  0  0
    3.6896    0.5947   -0.4429 C   0  0  0  0  0  0  0  0  0  0  0  0
    2.7254    1.5518   -0.7125 C   0  0  0  0  0  0  0  0  0  0  0  0
    1.4291    1.2693   -0.5373 C   0  0  0  0  0  0  0  0  0  0  0  0
    1.0944   -0.0339   -0.0720 C   0  0  0  0  0  0  0  0  0  0  0  0
    1.9638   -1.0103    0.2107 C   0  0  0  0  0  0  0  0  0  0  0  0
    1.6496   -2.2565    0.6596 O   0  0  0  0  0  0  0  0  0  0  0  0
    1.5753   -2.4905    2.0822 C   0  0  0  0  0  0  0  0  0  0  0  0
    3.3071   -0.6449    0.0050 C   0  0  0  0  0  0  0  0  0  0  0  0
    4.2896   -1.5936    0.2709 O   0  0  0  0  0  0  0  0  0  0  0  0
    4.8374   -1.6454    1.5729 C   0  0  0  0  0  0  0  0  0  0  0  0
   -0.3032   -0.4170    0.1147 C   0  0  0  0  0  0  0  0  0  0  0  0
   -0.3294   -1.6753   -0.4368 C   0  0  0  0  0  0  0  0  0  0  0  0
   -1.4689   -2.3951   -0.7749 C   0  0  0  0  0  0  0  0  0  0  0  0
   -2.7748   -1.9261   -0.6467 C   0  0  0  0  0  0  0  0  0  0  0  0
   -3.6787   -2.4935   -1.5196 O   0  0  0  0  0  0  0  0  0  0  0  0
   -3.2495   -3.4670   -2.4475 C   0  0  0  0  0  0  0  0  0  0  0  0
   -3.2614   -0.9701    0.2418 C   0  0  0  0  0  0  0  0  0  0  0  0
   -4.4555   -1.1392    0.5458 O   0  0  0  0  0  0  0  0  0  0  0  0
   -2.5692    0.1217    0.8077 C   0  0  0  0  0  0  0  0  0  0  0  0
   -1.2469    0.3789    0.6753 C   0  0  0  0  0  0  0  0  0  0  0  0
   -0.9909    1.7378    1.3151 C   0  0  2  0  0  0  0  0  0  0  0  0
   -2.4717    2.2713    1.3922 N   0  0  0  0  0  0  0  0  0  0  0  0
   -3.1684    2.6939    0.3052 C   0  0  0  0  0  0  0  0  0  0  0  0
   -4.5770    3.1814    0.4786 C   0  0  0  0  0  0  0  0  0  0  0  0
   -2.6749    2.6887   -0.8442 O   0  0  0  0  0  0  0  0  0  0  0  0
   -0.4378    2.6878    0.2014 C   0  0  0  0  0  0  0  0  0  0  0  0
    0.4018    2.2701   -0.8328 C   0  0  0  0  0  0  0  0  0  0  0  0
  1  2  1  0
  2  3  1  0
  3  4  2  0
  4  5  1  0
  5  6  2  0
  6  7  1  0
  7  8  1  0
  8  9  1  0
  7 10  2  0
 10 11  1  0
 11 12  1  0
  6 13  1  0
 13 14  2  0
 14 15  1  0
 15 16  2  0
 16 17  1  0
 17 18  1  0
 16 19  1  0
 19 20  2  0
 19 21  1  0
 21 22  2  0
 22 23  1  0
 23 24  1  6
 24 25  1  0
 25 26  1  0
 25 27  2  0
 23 28  1  0
 28 29  1  0
 10  3  1  0
 22 13  1  0
 29  5  1  0
M  END
>  <zinc_id>  (1) 
ZINC000000607790

>  <smiles>  (1) 
COc1cc2c(c(OC)c1OC)-c1ccc(OC)c(=O)cc1[C@H](NC(C)=O)CC2

$$$$
