
     RDKit          3D

  9  8  0  0  0  0  0  0  0  0999 V2000
   -2.5951   -0.2193   -1.2077 O   0  0  0  0  0  0  0  0  0  0  0  0
   -1.4843   -0.2068   -0.1502 P   0  0  0  0  0  0  0  0  0  0  0  0
   -1.7303   -1.6201    0.7751 O   0  0  0  0  0  0  0  0  0  0  0  0
   -1.7162    1.1815    0.7691 O   0  0  0  0  0  0  0  0  0  0  0  0
    0.0784   -0.2373   -1.0167 C   0  0  0  0  0  0  0  0  0  0  0  0
    1.4993    0.1545   -0.0268 P   0  0  0  0  0  0  0  0  0  0  0  0
    2.6658   -0.7366   -0.4464 O   0  0  0  0  0  0  0  0  0  0  0  0
    1.2740   -0.0692    1.6226 O   0  0  0  0  0  0  0  0  0  0  0  0
    2.0084    1.7533   -0.3189 O   0  0  0  0  0  0  0  0  0  0  0  0
  1  2  2  0
  2  3  1  0
  2  4  1  0
  2  5  1  0
  5  6  1  0
  6  7  2  0
  6  8  1  0
  6  9  1  0
M  END
>  <zinc_id>  (1) 
ZINC000008015016

>  <smiles>  (1) 
O=P(O)(O)CP(=O)(O)O

$$$$
