
     RDKit          3D

 19 19  0  0  0  0  0  0  0  0999 V2000
    0.1701    3.0487    0.8847 C   0  0  0  0  0  0  0  0  0  0  0  0
    0.1311    1.9637    0.9010 C   0  0  0  0  0  0  0  0  0  0  0  0
    0.7696    0.8781    0.1525 C   0  0  0  0  0  0  0  0  0  0  0  0
   -0.0919   -0.0553   -0.5722 C   0  0  2  0  0  0  0  0  0  0  0  0
    0.8768   -1.1523   -1.3153 C   0  0  1  0  0  0  0  0  0  0  0  0
    1.7015   -0.0279   -2.1773 C   0  0  0  0  0  0  0  0  0  0  0  0
    1.9289   -1.2462   -0.1524 C   0  0  0  0  0  0  0  0  0  0  0  0
    2.7314   -1.3445    0.7370 C   0  0  0  0  0  0  0  0  0  0  0  0
    3.7105   -1.4868    1.8059 C   0  0  0  0  0  0  0  0  0  0  0  0
    5.0349   -0.8668    1.4653 C   0  0  0  0  0  0  0  0  0  0  0  0
   -0.9124    0.5755   -1.6221 C   0  0  0  0  0  0  0  0  0  0  0  0
   -0.5710    0.6060   -2.8572 O   0  0  0  0  0  0  0  0  0  0  0  0
   -2.1341    1.1671   -1.2077 N   0  0  0  0  0  0  0  0  0  0  0  0
   -2.7851    0.7299   -0.0325 C   0  0  0  0  0  0  0  0  0  0  0  0
   -3.8846    1.2622    0.3378 O   0  0  0  0  0  0  0  0  0  0  0  0
   -2.1953   -0.3154    0.7344 N   0  0  0  0  0  0  0  0  0  0  0  0
   -2.8528   -0.7922    1.9631 C   0  0  0  0  0  0  0  0  0  0  0  0
   -0.9701   -0.8909    0.3011 C   0  0  0  0  0  0  0  0  0  0  0  0
   -0.6575   -2.0530    0.6484 O   0  0  0  0  0  0  0  0  0  0  0  0
  1  2  2  0
  2  3  1  0
  4  3  1  1
  4  5  1  0
  5  6  1  6
  5  7  1  0
  7  8  3  0
  8  9  1  0
  9 10  1  0
  4 11  1  0
 11 12  2  0
 11 13  1  0
 13 14  1  0
 14 15  2  0
 14 16  1  0
 16 17  1  0
 16 18  1  0
 18 19  2  0
 18  4  1  0
M  END
>  <zinc_id>  (1) 
ZINC000001530929

>  <smiles>  (1) 
C=CC[C@]1([C@@H](C)C#CCC)C(=O)NC(=O)N(C)C1=O

$$$$
