
     RDKit          3D

  4  3  0  0  0  0  0  0  0  0999 V2000
   -0.6445    1.2461   -0.1129 C   0  0  0  0  0  0  0  0  0  0  0  0
    0.0437   -0.0074    0.3577 C   0  0  0  0  0  0  0  0  0  0  0  0
   -0.7483   -1.1983   -0.1153 C   0  0  0  0  0  0  0  0  0  0  0  0
    1.3491   -0.0404   -0.1295 O   0  0  0  0  0  0  0  0  0  0  0  0
  1  2  1  0
  2  3  1  0
  2  4  1  0
M  END
>  <zinc_id>  (1) 
ZINC000000901159

>  <smiles>  (1) 
CC(C)O

$$$$
