
     RDKit          3D

 23 25  0  0  0  0  0  0  0  0999 V2000
    5.5713   -0.5741    1.6267 C   0  0  0  0  0  0  0  0  0  0  0  0
    5.2623   -0.0707    1.3880 C   0  0  0  0  0  0  0  0  0  0  0  0
    4.5525    1.0855    0.8397 C   0  0  0  0  0  0  0  0  0  0  0  0
    4.4422    1.0035   -0.6548 C   0  0  0  0  0  0  0  0  0  0  0  0
    3.6814   -0.1564   -1.1621 C   0  0  0  0  0  0  0  0  0  0  0  0
    2.2758   -0.0759   -0.6764 C   0  0  0  0  0  0  0  0  0  0  0  0
    1.9210   -0.6838    0.5031 C   0  0  0  0  0  0  0  0  0  0  0  0
    0.6158   -0.6137    0.9604 C   0  0  0  0  0  0  0  0  0  0  0  0
    0.1414   -1.1796    2.1226 O   0  0  0  0  0  0  0  0  0  0  0  0
   -0.2704    0.0755    0.1908 C   0  0  0  0  0  0  0  0  0  0  0  0
    0.0406    0.6916   -0.9833 C   0  0  0  0  0  0  0  0  0  0  0  0
    1.3489    0.6323   -1.4602 C   0  0  0  0  0  0  0  0  0  0  0  0
   -0.9691    1.3512   -1.6481 O   0  0  0  0  0  0  0  0  0  0  0  0
   -2.2265    0.7909   -1.7931 C   0  0  0  0  0  0  0  0  0  0  0  0
   -2.1680    0.0130   -3.1287 C   0  0  0  0  0  0  0  0  0  0  0  0
   -3.3554    1.6900   -1.8812 C   0  0  0  0  0  0  0  0  0  0  0  0
   -2.4264   -0.4463   -0.7751 C   0  0  2  0  0  0  0  0  0  0  0  0
   -3.9515   -0.1148   -0.3845 C   0  0  0  0  0  0  0  0  0  0  0  0
   -4.1241   -0.5138    1.0074 C   0  0  0  0  0  0  0  0  0  0  0  0
   -3.1331   -1.4512    1.5795 C   0  0  0  0  0  0  0  0  0  0  0  0
   -3.6102   -2.6797    2.2927 C   0  0  0  0  0  0  0  0  0  0  0  0
   -1.8506   -1.1585    1.4335 C   0  0  0  0  0  0  0  0  0  0  0  0
   -1.7682    0.2534    0.6030 C   0  0  1  0  0  0  0  0  0  0  0  0
  1  2  1  0
  2  3  1  0
  3  4  1  0
  4  5  1  0
  5  6  1  0
  6  7  2  0
  7  8  1  0
  8  9  1  0
  8 10  2  0
 10 11  1  0
 11 12  2  0
 11 13  1  0
 13 14  1  0
 14 15  1  0
 14 16  1  0
 14 17  1  0
 17 18  1  1
 18 19  1  0
 19 20  1  0
 20 21  1  0
 20 22  2  0
 23 22  1  1
 12  6  1  0
 23 17  1  0
 23 10  1  0
M  END
>  <zinc_id>  (1) 
ZINC000001530625

>  <smiles>  (1) 
CCCCCc1cc(O)c2c(c1)OC(C)(C)[C@@H]1CCC(C)=C[C@@H]21

$$$$
