
     RDKit          3D

 25 27  0  0  0  0  0  0  0  0999 V2000
    5.3883   -0.4780    0.7631 C   0  0  0  0  0  0  0  0  0  0  0  0
    4.3198   -0.4779    0.6462 C   0  0  0  0  0  0  0  0  0  0  0  0
    3.3869    0.3248    1.5331 C   0  0  0  0  0  0  0  0  0  0  0  0
    2.1896   -0.5557    1.7368 C   0  0  0  0  0  0  0  0  0  0  0  0
    1.3520   -0.6670    0.5286 N   0  0  0  0  0  0  0  0  0  0  0  0
    0.6817    0.7476    0.4560 C   0  0  2  0  0  0  0  0  0  0  0  0
    0.0025    0.5868    1.9132 C   0  0  0  0  0  0  0  0  0  0  0  0
   -0.6452    0.3225   -0.4212 C   0  0  2  0  0  0  0  0  0  0  0  0
    0.1509   -0.1310   -1.5395 O   0  0  0  0  0  0  0  0  0  0  0  0
   -1.4516    1.3806   -0.7849 C   0  0  0  0  0  0  0  0  0  0  0  0
   -1.1093    2.4955   -1.5630 N   0  0  0  0  0  0  0  0  0  0  0  0
   -0.6271    3.6087   -0.9832 C   0  0  0  0  0  0  0  0  0  0  0  0
   -0.3780    4.5156   -1.9028 N   0  0  0  0  0  0  0  0  0  0  0  0
   -0.6926    4.0073   -3.0821 C   0  0  0  0  0  0  0  0  0  0  0  0
   -1.1401    2.7649   -2.8528 N   0  0  0  0  0  0  0  0  0  0  0  0
   -1.3149   -0.8624    0.0548 C   0  0  0  0  0  0  0  0  0  0  0  0
   -0.9978   -2.1514   -0.4192 C   0  0  0  0  0  0  0  0  0  0  0  0
   -1.5680   -3.2916    0.0752 C   0  0  0  0  0  0  0  0  0  0  0  0
   -2.5010   -3.2677    1.0798 C   0  0  0  0  0  0  0  0  0  0  0  0
   -3.0639   -4.4289    1.5667 F   0  0  0  0  0  0  0  0  0  0  0  0
   -2.8307   -2.0318    1.5597 C   0  0  0  0  0  0  0  0  0  0  0  0
   -2.2506   -0.8754    1.0541 C   0  0  0  0  0  0  0  0  0  0  0  0
   -2.7605    0.2873    1.5872 F   0  0  0  0  0  0  0  0  0  0  0  0
    2.2792   -0.5583   -0.6019 C   0  0  0  0  0  0  0  0  0  0  0  0
    3.5804   -1.2644   -0.4039 C   0  0  0  0  0  0  0  0  0  0  0  0
  1  2  2  0
  2  3  1  0
  3  4  1  0
  4  5  1  0
  5  6  1  0
  6  7  1  1
  6  8  1  0
  8  9  1  6
  8 10  1  0
 10 11  1  0
 11 12  1  0
 12 13  2  0
 13 14  1  0
 14 15  2  0
  8 16  1  0
 16 17  2  0
 17 18  1  0
 18 19  2  0
 19 20  1  0
 19 21  1  0
 21 22  2  0
 22 23  1  0
  5 24  1  0
 24 25  1  0
 25  2  1  0
 15 11  1  0
 22 16  1  0
M  END
>  <zinc_id>  (1) 
ZINC000000006251

>  <smiles>  (1) 
C=C1CCN([C@H](C)[C@](O)(Cn2cncn2)c2ccc(F)cc2F)CC1

$$$$
