
     RDKit          3D

 25 27  0  0  0  0  0  0  0  0999 V2000
    7.3250    0.3933    0.7244 Cl  0  0  0  0  0  0  0  0  0  0  0  0
    5.6273    0.1912    0.5914 C   0  0  0  0  0  0  0  0  0  0  0  0
    4.9151   -0.7013    1.3476 C   0  0  0  0  0  0  0  0  0  0  0  0
    3.5500   -0.8552    1.2330 C   0  0  0  0  0  0  0  0  0  0  0  0
    2.8375   -0.0836    0.3172 C   0  0  0  0  0  0  0  0  0  0  0  0
    1.3816   -0.2120    0.1479 C   0  0  0  0  0  0  0  0  0  0  0  0
    0.5943    0.6701    1.0582 C   0  0  0  0  0  0  0  0  0  0  0  0
   -0.9425    0.4541    0.8620 C   0  0  1  0  0  0  0  0  0  0  0  0
   -1.0851    0.8566   -0.6332 C   0  0  0  0  0  0  0  0  0  0  0  0
   -0.7014    2.2240   -0.8586 N   0  0  0  0  0  0  0  0  0  0  0  0
   -1.6378    3.2163   -0.7553 C   0  0  0  0  0  0  0  0  0  0  0  0
   -1.0408    4.4397   -1.0194 C   0  0  0  0  0  0  0  0  0  0  0  0
    0.2561    4.1857   -1.2822 N   0  0  0  0  0  0  0  0  0  0  0  0
    0.4151    2.8544   -1.1755 C   0  0  0  0  0  0  0  0  0  0  0  0
   -0.9545   -1.4210    0.6087 S   0  0  0  0  0  0  0  0  0  0  0  0
   -2.6377   -1.9413    0.3780 C   0  0  0  0  0  0  0  0  0  0  0  0
   -3.2680   -2.0389   -0.8384 C   0  0  0  0  0  0  0  0  0  0  0  0
   -2.4021   -1.6663   -2.2836 Cl  0  0  0  0  0  0  0  0  0  0  0  0
   -4.5883   -2.4412   -0.9539 C   0  0  0  0  0  0  0  0  0  0  0  0
   -5.3364   -2.7652    0.1577 C   0  0  0  0  0  0  0  0  0  0  0  0
   -4.7147   -2.6714    1.3854 C   0  0  0  0  0  0  0  0  0  0  0  0
   -3.4000   -2.2703    1.4948 C   0  0  0  0  0  0  0  0  0  0  0  0
   -2.6654   -2.1688    3.0691 Cl  0  0  0  0  0  0  0  0  0  0  0  0
    3.5604    0.7995   -0.4277 C   0  0  0  0  0  0  0  0  0  0  0  0
    4.9124    0.9516   -0.3137 C   0  0  0  0  0  0  0  0  0  0  0  0
  1  2  1  0
  2  3  2  0
  3  4  1  0
  4  5  2  0
  5  6  1  0
  6  7  1  0
  8  7  1  6
  8  9  1  0
  9 10  1  0
 10 11  1  0
 11 12  2  0
 12 13  1  0
 13 14  2  0
  8 15  1  0
 15 16  1  0
 16 17  2  0
 17 18  1  0
 17 19  1  0
 19 20  2  0
 20 21  1  0
 21 22  2  0
 22 23  1  0
  5 24  1  0
 24 25  2  0
 25  2  1  0
 14 10  1  0
 22 16  1  0
M  END
>  <zinc_id>  (1) 
ZINC000001530973

>  <smiles>  (1) 
Clc1ccc(CC[C@@H](Cn2ccnc2)Sc2c(Cl)cccc2Cl)cc1

$$$$
