
     RDKit          3D

 30 32  0  0  0  0  0  0  0  0999 V2000
    0.6828   -1.7238    2.7719 C   0  0  0  0  0  0  0  0  0  0  0  0
    0.1100   -1.9910    2.1164 C   0  0  0  0  0  0  0  0  0  0  0  0
   -0.3454   -3.3994    1.7011 C   0  0  0  0  0  0  0  0  0  0  0  0
   -0.8735   -1.0630    1.5038 N   0  0  0  0  0  0  0  0  0  0  0  0
   -0.7426   -0.5640    0.2626 C   0  0  0  0  0  0  0  0  0  0  0  0
    0.3386   -0.8107   -0.7036 C   0  0  0  0  0  0  0  0  0  0  0  0
    1.3652   -1.5947   -0.4877 C   0  0  0  0  0  0  0  0  0  0  0  0
    2.4007   -1.6749   -1.7211 C   0  0  1  0  0  0  0  0  0  0  0  0
    2.6937   -0.2103   -1.7362 O   0  0  0  0  0  0  0  0  0  0  0  0
    3.6604   -2.1346   -0.8071 C   0  0  0  0  0  0  0  0  0  0  0  0
    3.8557   -0.9491    0.2792 C   0  0  1  0  0  0  0  0  0  0  0  0
    5.0263   -1.6656    0.9656 O   0  0  0  0  0  0  0  0  0  0  0  0
    4.9136   -0.1090   -0.6745 C   0  0  0  0  0  0  0  0  0  0  0  0
    5.2761    1.0891    0.1113 C   0  0  0  0  0  0  0  0  0  0  0  0
    4.7753    1.2709    1.2370 O   0  0  0  0  0  0  0  0  0  0  0  0
    6.1819    1.9637   -0.4757 O   0  0  0  0  0  0  0  0  0  0  0  0
   -1.8100    0.2619    0.0023 C   0  0  0  0  0  0  0  0  0  0  0  0
   -2.1346    1.0175   -1.1980 C   0  0  0  0  0  0  0  0  0  0  0  0
   -1.4250    2.0819   -1.6189 C   0  0  0  0  0  0  0  0  0  0  0  0
   -1.8112    2.7646   -2.7784 C   0  0  0  0  0  0  0  0  0  0  0  0
   -2.9316    2.3550   -3.5112 C   0  0  0  0  0  0  0  0  0  0  0  0
   -3.2858    3.0527   -4.6441 F   0  0  0  0  0  0  0  0  0  0  0  0
   -3.6356    1.2859   -3.0799 C   0  0  0  0  0  0  0  0  0  0  0  0
   -3.2529    0.6144   -1.9375 C   0  0  0  0  0  0  0  0  0  0  0  0
   -2.5907    0.2287    1.1641 C   0  0  0  0  0  0  0  0  0  0  0  0
   -3.7807    0.8510    1.4990 C   0  0  0  0  0  0  0  0  0  0  0  0
   -4.3657    0.6473    2.7363 C   0  0  0  0  0  0  0  0  0  0  0  0
   -3.7591   -0.1873    3.6562 C   0  0  0  0  0  0  0  0  0  0  0  0
   -2.5527   -0.8071    3.2951 C   0  0  0  0  0  0  0  0  0  0  0  0
   -1.9832   -0.6001    2.0719 C   0  0  0  0  0  0  0  0  0  0  0  0
  1  2  1  0
  2  3  1  0
  2  4  1  0
  4  5  1  0
  5  6  1  0
  6  7  2  0
  7  8  1  0
  8  9  1  1
  8 10  1  0
 10 11  1  0
 11 12  1  1
 11 13  1  0
 13 14  1  0
 14 15  2  0
 14 16  1  0
  5 17  2  0
 17 18  1  0
 18 19  2  0
 19 20  1  0
 20 21  2  0
 21 22  1  0
 21 23  1  0
 23 24  2  0
 17 25  1  0
 25 26  2  0
 26 27  1  0
 27 28  2  0
 28 29  1  0
 29 30  2  0
 30  4  1  0
 24 18  1  0
 30 25  1  0
M  END
>  <zinc_id>  (1) 
ZINC000001886617

>  <smiles>  (1) 
CC(C)n1c(/C=C/[C@@H](O)C[C@@H](O)CC(=O)O)c(-c2ccc(F)cc2)c2ccccc21

$$$$
