
     RDKit          3D

 27 27  0  0  0  0  0  0  0  0999 V2000
   -8.0452    1.0761    0.2516 C   0  0  0  0  0  0  0  0  0  0  0  0
   -7.6431    1.0596    0.4191 C   0  0  0  0  0  0  0  0  0  0  0  0
   -6.2503    1.0028    0.9969 C   0  0  0  0  0  0  0  0  0  0  0  0
   -5.3851   -0.0794    0.5166 C   0  0  0  0  0  0  0  0  0  0  0  0
   -5.1178   -0.0300   -0.9561 C   0  0  2  0  0  0  0  0  0  0  0  0
   -4.4446    1.3082   -1.3119 C   0  0  0  0  0  0  0  0  0  0  0  0
   -6.2317   -0.2346   -1.7257 O   0  0  0  0  0  0  0  0  0  0  0  0
   -4.1012   -1.1594   -1.2995 C   0  0  0  0  0  0  0  0  0  0  0  0
   -2.8693   -0.8618   -0.5015 C   0  0  0  0  0  0  0  0  0  0  0  0
   -1.6847   -0.6395   -1.0095 C   0  0  0  0  0  0  0  0  0  0  0  0
   -0.4607   -0.3370   -0.1071 C   0  0  1  0  0  0  0  0  0  0  0  0
   -1.0078   -1.2003    1.2429 C   0  0  2  0  0  0  0  0  0  0  0  0
   -1.3036    0.1062    2.0235 O   0  0  0  0  0  0  0  0  0  0  0  0
    0.5975   -1.1939    1.8032 C   0  0  0  0  0  0  0  0  0  0  0  0
    1.1620   -1.9639    0.7138 C   0  0  0  0  0  0  0  0  0  0  0  0
    2.0378   -2.7619    0.7588 O   0  0  0  0  0  0  0  0  0  0  0  0
    0.4740   -1.6478   -0.6301 C   0  0  2  0  0  0  0  0  0  0  0  0
    1.5608   -0.7397   -1.3447 C   0  0  0  0  0  0  0  0  0  0  0  0
    2.2768    0.2022   -0.6268 C   0  0  0  0  0  0  0  0  0  0  0  0
    3.2629    0.0866    0.4197 C   0  0  0  0  0  0  0  0  0  0  0  0
    4.5255   -0.6009   -0.1283 C   0  0  0  0  0  0  0  0  0  0  0  0
    5.5609   -0.7129    1.0004 C   0  0  0  0  0  0  0  0  0  0  0  0
    5.8918    0.6622    1.4827 C   0  0  0  0  0  0  0  0  0  0  0  0
    6.4495    1.4495    0.3631 C   0  0  0  0  0  0  0  0  0  0  0  0
    6.5724    0.8958   -0.7540 O   0  0  0  0  0  0  0  0  0  0  0  0
    6.8174    2.7837    0.5977 O   0  0  0  0  0  0  0  0  0  0  0  0
    7.3556    3.5301   -0.5015 C   0  0  0  0  0  0  0  0  0  0  0  0
  1  2  1  0
  2  3  1  0
  3  4  1  0
  4  5  1  0
  5  6  1  1
  5  7  1  0
  5  8  1  0
  8  9  1  0
  9 10  2  0
 11 10  1  6
 11 12  1  0
 12 13  1  1
 12 14  1  0
 14 15  1  0
 15 16  2  0
 15 17  1  0
 17 18  1  6
 18 19  1  0
 19 20  1  0
 20 21  1  0
 21 22  1  0
 22 23  1  0
 23 24  1  0
 24 25  2  0
 24 26  1  0
 26 27  1  0
 17 11  1  0
M  END
>  <zinc_id>  (1) 
ZINC000003812913

>  <smiles>  (1) 
CCCC[C@](C)(O)C/C=C/[C@H]1[C@H](O)CC(=O)[C@@H]1CCCCCCC(=O)OC

$$$$
