
     RDKit          3D

 19 20  0  0  0  0  0  0  0  0999 V2000
   -5.9992    1.5523   -0.0801 C   0  0  0  0  0  0  0  0  0  0  0  0
   -4.6621    0.8832   -0.0350 C   0  0  0  0  0  0  0  0  0  0  0  0
   -4.4851   -0.3766    0.4752 C   0  0  0  0  0  0  0  0  0  0  0  0
   -3.2494   -0.9960    0.5169 C   0  0  0  0  0  0  0  0  0  0  0  0
   -2.1166   -0.3353    0.0264 C   0  0  0  0  0  0  0  0  0  0  0  0
   -0.7934   -0.9860    0.0695 C   0  0  0  0  0  0  0  0  0  0  0  0
   -0.7517   -2.2601    0.0848 O   0  0  0  0  0  0  0  0  0  0  0  0
    0.4049   -0.1961    0.0953 C   0  0  0  0  0  0  0  0  0  0  0  0
    0.5340    1.0928   -0.3749 C   0  0  0  0  0  0  0  0  0  0  0  0
    1.8382    1.4643   -0.1492 C   0  0  0  0  0  0  0  0  0  0  0  0
    2.4898    0.4301    0.4439 C   0  0  0  0  0  0  0  0  0  0  0  0
    3.9127    0.4389    0.8545 C   0  0  0  0  0  0  0  0  0  0  0  0
    4.8141   -0.0981   -0.1990 C   0  0  0  0  0  0  0  0  0  0  0  0
    6.0531   -0.0195    0.0077 O   0  0  0  0  0  0  0  0  0  0  0  0
    4.3486   -0.6695   -1.3750 O   0  0  0  0  0  0  0  0  0  0  0  0
    1.5874   -0.5574    0.5743 N   0  0  0  0  0  0  0  0  0  0  0  0
    1.9464   -1.8446    1.1816 C   0  0  0  0  0  0  0  0  0  0  0  0
   -2.3219    0.9256   -0.4795 C   0  0  0  0  0  0  0  0  0  0  0  0
   -3.5495    1.5519   -0.5259 C   0  0  0  0  0  0  0  0  0  0  0  0
  1  2  1  0
  2  3  2  0
  3  4  1  0
  4  5  2  0
  5  6  1  0
  6  7  2  0
  6  8  1  0
  8  9  2  0
  9 10  1  0
 10 11  2  0
 11 12  1  0
 12 13  1  0
 13 14  2  0
 13 15  1  0
 11 16  1  0
 16 17  1  0
  5 18  1  0
 18 19  2  0
 19  2  1  0
 16  8  1  0
M  END
>  <zinc_id>  (1) 
ZINC000000002191

>  <smiles>  (1) 
Cc1ccc(C(=O)c2ccc(CC(=O)O)n2C)cc1

$$$$
