
     RDKit          3D

 22 26  0  0  0  0  0  0  0  0999 V2000
    0.7545   -1.9057   -1.5409 O   0  0  0  0  0  0  0  0  0  0  0  0
    0.1417   -1.0343   -1.0780 C   0  0  0  0  0  0  0  0  0  0  0  0
   -1.1755   -1.1843   -0.4330 C   0  0  0  0  0  0  0  0  0  0  0  0
   -1.7622   -2.4593   -0.4422 C   0  0  0  0  0  0  0  0  0  0  0  0
   -3.0424   -2.5456    0.1189 C   0  0  0  0  0  0  0  0  0  0  0  0
   -3.6676   -1.4413    0.6401 C   0  0  0  0  0  0  0  0  0  0  0  0
   -3.0677   -0.1808    0.6415 C   0  0  0  0  0  0  0  0  0  0  0  0
   -1.8158   -0.1101    0.0910 C   0  0  0  0  0  0  0  0  0  0  0  0
   -1.1441    1.2944    0.1859 C   0  0  2  0  0  0  0  0  0  0  0  0
   -2.4616    2.1282   -0.3851 C   0  0  0  0  0  0  0  0  0  0  0  0
   -3.2700    2.2757    0.8904 C   0  0  0  0  0  0  0  0  0  0  0  0
   -3.8306    0.9315    1.2275 C   0  0  0  0  0  0  0  0  0  0  0  0
   -0.3818    1.3105   -1.2319 C   0  0  0  0  0  0  0  0  0  0  0  0
    0.5926    0.2659   -1.0812 N   0  0  0  0  0  0  0  0  0  0  0  0
    2.0349    0.7374   -0.9574 C   0  0  2  0  0  0  0  0  0  0  0  0
    2.8153   -0.7065   -0.8167 C   0  0  0  0  0  0  0  0  0  0  0  0
    3.9803   -0.3930   -0.0034 N   0  0  0  0  0  0  0  0  0  0  0  0
    4.3258    1.0137   -0.0385 C   0  0  0  0  0  0  0  0  0  0  0  0
    3.2998    1.8309    0.7638 C   0  0  0  0  0  0  0  0  0  0  0  0
    2.0002    1.0472    0.6577 C   0  0  0  0  0  0  0  0  0  0  0  0
    2.1086   -0.1932    1.4273 C   0  0  0  0  0  0  0  0  0  0  0  0
    3.5656   -0.6812    1.3642 C   0  0  0  0  0  0  0  0  0  0  0  0
  1  2  2  0
  2  3  1  0
  3  4  2  0
  4  5  1  0
  5  6  2  0
  6  7  1  0
  7  8  2  0
  8  9  1  0
  9 10  1  6
 10 11  1  0
 11 12  1  0
  9 13  1  0
 13 14  1  0
 15 14  1  1
 15 16  1  0
 16 17  1  0
 17 18  1  0
 18 19  1  0
 19 20  1  0
 20 21  1  0
 21 22  1  0
 14  2  1  0
 20 15  1  0
  8  3  1  0
 22 17  1  0
 12  7  1  0
M  END
>  <zinc_id>  (1) 
ZINC000003795819

>  <smiles>  (1) 
O=C1c2cccc3c2[C@H](CCC3)CN1[C@@H]1CN2CCC1CC2

$$$$
