
     RDKit          3D

 20 22  0  0  0  0  0  0  0  0999 V2000
    3.3848   -0.8215    1.7409 C   0  0  0  0  0  0  0  0  0  0  0  0
    2.2016   -1.0773    0.6008 C   0  0  1  0  0  0  0  0  0  0  0  0
    1.2193   -0.0017    1.3170 C   0  0  0  0  0  0  0  0  0  0  0  0
   -0.0180    0.0878    0.5900 N   0  0  0  0  0  0  0  0  0  0  0  0
   -0.7950   -1.0780    0.4067 C   0  0  0  0  0  0  0  0  0  0  0  0
   -0.4000   -2.3080    0.9072 C   0  0  0  0  0  0  0  0  0  0  0  0
   -1.1441   -3.4568    0.7449 C   0  0  0  0  0  0  0  0  0  0  0  0
   -2.3320   -3.4492    0.0709 C   0  0  0  0  0  0  0  0  0  0  0  0
   -2.7543   -2.2329   -0.4421 C   0  0  0  0  0  0  0  0  0  0  0  0
   -1.9945   -1.1050   -0.2661 C   0  0  0  0  0  0  0  0  0  0  0  0
   -2.6510    0.3732   -0.9690 S   0  0  0  0  0  0  0  0  0  0  0  0
   -1.5168    1.6914   -0.6095 C   0  0  0  0  0  0  0  0  0  0  0  0
   -1.7955    2.9875   -1.0427 C   0  0  0  0  0  0  0  0  0  0  0  0
   -0.9119    3.9886   -0.7537 C   0  0  0  0  0  0  0  0  0  0  0  0
    0.2402    3.7421   -0.0479 C   0  0  0  0  0  0  0  0  0  0  0  0
    0.4683    2.4621    0.3531 C   0  0  0  0  0  0  0  0  0  0  0  0
   -0.3876    1.3670    0.1003 C   0  0  0  0  0  0  0  0  0  0  0  0
    2.8688   -0.0700   -0.3974 N   0  0  0  0  0  0  0  0  0  0  0  0
    4.1972   -0.6680   -0.6782 C   0  0  0  0  0  0  0  0  0  0  0  0
    2.1205   -0.4314   -1.6252 C   0  0  0  0  0  0  0  0  0  0  0  0
  2  1  1  1
  2  3  1  0
  3  4  1  0
  4  5  1  0
  5  6  2  0
  6  7  1  0
  7  8  2  0
  8  9  1  0
  9 10  2  0
 10 11  1  0
 11 12  1  0
 12 13  2  0
 13 14  1  0
 14 15  2  0
 15 16  1  0
 16 17  2  0
  2 18  1  0
 18 19  1  0
 18 20  1  0
 17  4  1  0
 10  5  1  0
 17 12  1  0
M  END
>  <zinc_id>  (1) 
ZINC000000020250

>  <smiles>  (1) 
C[C@@H](CN1c2ccccc2Sc2ccccc21)N(C)C

$$$$
