
     RDKit          3D

 39 41  0  0  0  0  0  0  0  0999 V2000
    3.8068    7.0208    1.6048 C   0  0  0  0  0  0  0  0  0  0  0  0
    3.5369    6.4509    1.2226 C   0  0  0  0  0  0  0  0  0  0  0  0
    2.5895    5.2962    1.4195 C   0  0  0  0  0  0  0  0  0  0  0  0
    2.0381    5.1776    2.5415 O   0  0  0  0  0  0  0  0  0  0  0  0
    2.3154    4.3921    0.4388 O   0  0  0  0  0  0  0  0  0  0  0  0
    1.3224    3.2638    0.7563 C   0  0  2  0  0  0  0  0  0  0  0  0
    1.5118    2.5821   -0.6268 O   0  0  0  0  0  0  0  0  0  0  0  0
    0.4669    1.2221   -0.5073 P   0  0  1  0  0  0  0  0  0  0  0  0
    0.1470    0.8502   -1.9331 O   0  0  0  0  0  0  0  0  0  0  0  0
    1.4835   -0.1908    0.1023 C   0  0  0  0  0  0  0  0  0  0  0  0
    2.9281    0.1718    0.1820 C   0  0  0  0  0  0  0  0  0  0  0  0
    3.4432    0.5692   -1.1930 C   0  0  0  0  0  0  0  0  0  0  0  0
    3.3043   -0.5380   -2.1903 C   0  0  0  0  0  0  0  0  0  0  0  0
    4.0887   -1.7122   -1.7108 C   0  0  0  0  0  0  0  0  0  0  0  0
    3.4761   -2.6574   -0.9038 C   0  0  0  0  0  0  0  0  0  0  0  0
    4.1548   -3.7605   -0.4336 C   0  0  0  0  0  0  0  0  0  0  0  0
    5.4715   -3.9089   -0.7851 C   0  0  0  0  0  0  0  0  0  0  0  0
    6.1122   -2.9904   -1.5845 C   0  0  0  0  0  0  0  0  0  0  0  0
    5.4194   -1.8891   -2.0488 C   0  0  0  0  0  0  0  0  0  0  0  0
   -0.7856    1.4912    0.6071 C   0  0  0  0  0  0  0  0  0  0  0  0
   -1.8321    0.6529    1.0279 C   0  0  0  0  0  0  0  0  0  0  0  0
   -2.5723    1.2184    1.9264 O   0  0  0  0  0  0  0  0  0  0  0  0
   -2.2362   -0.6456    0.6859 N   0  0  0  0  0  0  0  0  0  0  0  0
   -3.3033   -1.3357    1.2255 C   0  0  0  0  0  0  0  0  0  0  0  0
   -3.5218   -2.6464    0.3217 C   0  0  2  0  0  0  0  0  0  0  0  0
   -3.7922   -3.6203    1.6074 C   0  0  0  0  0  0  0  0  0  0  0  0
   -5.0235   -3.0014    2.2893 C   0  0  0  0  0  0  0  0  0  0  0  0
   -5.9677   -2.5836    1.1754 C   0  0  0  0  0  0  0  0  0  0  0  0
   -6.3856   -3.7162    0.3089 C   0  0  0  0  0  0  0  0  0  0  0  0
   -5.3046   -4.6588   -0.0856 C   0  0  0  0  0  0  0  0  0  0  0  0
   -4.2809   -4.9086    0.9873 C   0  0  0  0  0  0  0  0  0  0  0  0
   -1.9309   -2.9328    0.2674 C   0  0  0  0  0  0  0  0  0  0  0  0
   -1.5016   -1.4930   -0.3907 C   0  0  1  0  0  0  0  0  0  0  0  0
   -2.6062   -1.4505   -1.5134 C   0  0  0  0  0  0  0  0  0  0  0  0
   -3.6005   -0.7529   -1.3263 O   0  0  0  0  0  0  0  0  0  0  0  0
   -2.3516   -2.2184   -2.6317 O   0  0  0  0  0  0  0  0  0  0  0  0
   -0.0022    4.0620    0.2528 C   0  0  0  0  0  0  0  0  0  0  0  0
    0.0458    4.4604   -1.1118 C   0  0  0  0  0  0  0  0  0  0  0  0
   -0.6637    4.7299    1.3330 C   0  0  0  0  0  0  0  0  0  0  0  0
  1  2  1  0
  2  3  1  0
  3  4  2  0
  3  5  1  0
  6  5  1  6
  6  7  1  0
  7  8  1  0
  8  9  2  0
  8 10  1  1
 10 11  1  0
 11 12  1  0
 12 13  1  0
 13 14  1  0
 14 15  2  0
 15 16  1  0
 16 17  2  0
 17 18  1  0
 18 19  2  0
  8 20  1  0
 20 21  1  0
 21 22  2  0
 21 23  1  0
 23 24  1  0
 24 25  1  0
 25 26  1  1
 26 27  1  0
 27 28  1  0
 28 29  1  0
 29 30  1  0
 30 31  1  0
 25 32  1  0
 32 33  1  0
 33 34  1  6
 34 35  2  0
 34 36  1  0
  6 37  1  0
 37 38  1  0
 37 39  1  0
 19 14  1  0
 33 23  1  0
 31 26  1  0
M  END
>  <zinc_id>  (1) 
ZINC000004097309

>  <smiles>  (1) 
CCC(=O)O[C@H](O[P@@](=O)(CCCCc1ccccc1)CC(=O)N1C[C@H](C2CCCCC2)C[C@H]1C(=O)O)C(C)C

$$$$
