
     RDKit          3D

 21 22  0  0  0  0  0  0  0  0999 V2000
    5.6434    1.5018    0.2521 C   0  0  0  0  0  0  0  0  0  0  0  0
    4.9223    0.3713    0.6919 O   0  0  0  0  0  0  0  0  0  0  0  0
    3.6884    0.1042    0.1338 C   0  0  0  0  0  0  0  0  0  0  0  0
    3.1743    0.9330   -0.8402 C   0  0  0  0  0  0  0  0  0  0  0  0
    1.9557    0.7114   -1.4258 C   0  0  0  0  0  0  0  0  0  0  0  0
    1.1774   -0.3675   -1.0613 C   0  0  0  0  0  0  0  0  0  0  0  0
   -0.1180   -0.6103   -1.6800 C   0  0  0  0  0  0  0  0  0  0  0  0
   -1.2707   -0.2216   -0.9325 N   0  0  0  0  0  0  0  0  0  0  0  0
   -1.4685    1.1395   -0.5424 C   0  0  0  0  0  0  0  0  0  0  0  0
   -0.5240    1.6682    0.4845 C   0  0  0  0  0  0  0  0  0  0  0  0
   -0.8807    3.0525    0.7456 N   0  0  0  0  0  0  0  0  0  0  0  0
   -2.1591    3.1806    1.4134 C   0  0  0  0  0  0  0  0  0  0  0  0
    0.1754    3.7881    1.4112 C   0  0  0  0  0  0  0  0  0  0  0  0
   -2.2216   -1.2141   -0.5781 C   0  0  0  0  0  0  0  0  0  0  0  0
   -3.3389   -0.9115    0.1286 N   0  0  0  0  0  0  0  0  0  0  0  0
   -4.2568   -1.8203    0.4829 C   0  0  0  0  0  0  0  0  0  0  0  0
   -4.0787   -3.1338    0.1235 C   0  0  0  0  0  0  0  0  0  0  0  0
   -2.9552   -3.4702   -0.5940 C   0  0  0  0  0  0  0  0  0  0  0  0
   -2.0809   -2.5060   -0.9121 N   0  0  0  0  0  0  0  0  0  0  0  0
    1.6954   -1.2081   -0.0753 C   0  0  0  0  0  0  0  0  0  0  0  0
    2.9209   -0.9872    0.5150 C   0  0  0  0  0  0  0  0  0  0  0  0
  1  2  1  0
  2  3  1  0
  3  4  2  0
  4  5  1  0
  5  6  2  0
  6  7  1  0
  7  8  1  0
  8  9  1  0
  9 10  1  0
 10 11  1  0
 11 12  1  0
 11 13  1  0
  8 14  1  0
 14 15  2  0
 15 16  1  0
 16 17  2  0
 17 18  1  0
 18 19  2  0
  6 20  1  0
 20 21  2  0
 21  3  1  0
 19 14  1  0
M  END
>  <zinc_id>  (1) 
ZINC000000057513

>  <smiles>  (1) 
COc1ccc(CN(CCN(C)C)c2ncccn2)cc1

$$$$
