
     RDKit          3D

 20 21  0  0  0  0  0  0  0  0999 V2000
    3.6338   -0.7893    0.7965 O   0  0  0  0  0  0  0  0  0  0  0  0
    2.6243   -0.8288    0.5565 C   0  0  0  0  0  0  0  0  0  0  0  0
    1.7715   -1.8367    0.9219 N   0  0  0  0  0  0  0  0  0  0  0  0
    0.4639   -1.8518    0.5900 C   0  0  0  0  0  0  0  0  0  0  0  0
   -0.2871   -2.8044    0.9499 O   0  0  0  0  0  0  0  0  0  0  0  0
   -0.0173   -0.8148   -0.1402 N   0  0  0  0  0  0  0  0  0  0  0  0
   -1.5444   -0.9337   -0.4767 C   0  0  1  0  0  0  0  0  0  0  0  0
   -1.9908   -0.9082    1.1068 C   0  0  0  0  0  0  0  0  0  0  0  0
   -3.1985    0.1705    1.0201 C   0  0  2  0  0  0  0  0  0  0  0  0
   -4.2851   -0.8700    1.1629 O   0  0  0  0  0  0  0  0  0  0  0  0
   -3.2668    0.1391   -0.6865 C   0  0  1  0  0  0  0  0  0  0  0  0
   -3.8585    1.6390   -0.8786 C   0  0  0  0  0  0  0  0  0  0  0  0
   -3.4889    2.4445    0.1252 O   0  0  0  0  0  0  0  0  0  0  0  0
   -1.8217    0.5498   -0.6859 O   0  0  0  0  0  0  0  0  0  0  0  0
    0.6970    0.1805   -0.5343 C   0  0  0  0  0  0  0  0  0  0  0  0
    2.0545    0.1818   -0.1812 C   0  0  0  0  0  0  0  0  0  0  0  0
    2.9329    1.3246   -0.6187 C   0  0  0  0  0  0  0  0  0  0  0  0
    3.9207    0.7709   -1.3923 F   0  0  0  0  0  0  0  0  0  0  0  0
    2.2019    2.2755   -1.2903 F   0  0  0  0  0  0  0  0  0  0  0  0
    3.4587    1.9614    0.5083 F   0  0  0  0  0  0  0  0  0  0  0  0
  1  2  2  0
  2  3  1  0
  3  4  1  0
  4  5  2  0
  4  6  1  0
  7  6  1  1
  7  8  1  0
  8  9  1  0
  9 10  1  1
  9 11  1  0
 11 12  1  6
 12 13  1  0
 11 14  1  0
  6 15  1  0
 15 16  2  0
 16 17  1  0
 17 18  1  0
 17 19  1  0
 17 20  1  0
 16  2  1  0
 14  7  1  0
M  END
>  <zinc_id>  (1) 
ZINC000003842753

>  <smiles>  (1) 
O=c1[nH]c(=O)n([C@H]2C[C@H](O)[C@@H](CO)O2)cc1C(F)(F)F

$$$$
