
     RDKit          3D

 22 24  0  0  0  0  0  0  0  0999 V2000
   -0.4470   -2.8843   -0.9188 C   0  0  0  0  0  0  0  0  0  0  0  0
    0.3674   -1.6720   -1.0546 N   0  0  0  0  0  0  0  0  0  0  0  0
    1.0014   -1.3716    0.2384 C   0  0  0  0  0  0  0  0  0  0  0  0
    1.9885   -2.4497    0.4849 C   0  0  0  0  0  0  0  0  0  0  0  0
    3.2503   -2.1188    0.6279 C   0  0  0  0  0  0  0  0  0  0  0  0
    3.6426   -0.7183    0.5430 C   0  0  0  0  0  0  0  0  0  0  0  0
    5.0022   -0.3996    0.6862 C   0  0  0  0  0  0  0  0  0  0  0  0
    5.4643    0.8956    0.6251 C   0  0  0  0  0  0  0  0  0  0  0  0
    4.5445    1.8992    0.4153 C   0  0  0  0  0  0  0  0  0  0  0  0
    3.1911    1.6447    0.2670 C   0  0  0  0  0  0  0  0  0  0  0  0
    2.8000    0.3288    0.3391 C   0  0  0  0  0  0  0  0  0  0  0  0
   -0.5504   -0.6050   -1.3800 C   0  0  0  0  0  0  0  0  0  0  0  0
   -1.5896   -0.3685   -0.3670 C   0  0  0  0  0  0  0  0  0  0  0  0
   -1.6481   -1.1208    0.7808 C   0  0  0  0  0  0  0  0  0  0  0  0
   -2.6408   -0.8871    1.7378 C   0  0  0  0  0  0  0  0  0  0  0  0
   -3.5700    0.1056    1.5315 C   0  0  0  0  0  0  0  0  0  0  0  0
   -3.5140    0.8642    0.3782 C   0  0  0  0  0  0  0  0  0  0  0  0
   -4.4647    1.8527    0.2059 C   0  0  0  0  0  0  0  0  0  0  0  0
   -4.3959    2.6130   -0.9676 C   0  0  0  0  0  0  0  0  0  0  0  0
   -3.4252    2.3859   -1.9060 C   0  0  0  0  0  0  0  0  0  0  0  0
   -2.4825    1.3842   -1.7038 C   0  0  0  0  0  0  0  0  0  0  0  0
   -2.5241    0.6219   -0.5634 C   0  0  0  0  0  0  0  0  0  0  0  0
  1  2  1  0
  2  3  1  0
  3  4  1  0
  4  5  2  0
  5  6  1  0
  6  7  2  0
  7  8  1  0
  8  9  2  0
  9 10  1  0
 10 11  2  0
  2 12  1  0
 12 13  1  0
 13 14  2  0
 14 15  1  0
 15 16  2  0
 16 17  1  0
 17 18  2  0
 18 19  1  0
 19 20  2  0
 20 21  1  0
 21 22  2  0
 11  6  1  0
 22 13  1  0
 22 17  1  0
M  END
>  <zinc_id>  (1) 
ZINC000007997897

>  <smiles>  (1) 
CN(C/C=C\c1ccccc1)Cc1cccc2ccccc12

$$$$
