
     RDKit          3D

 22 24  0  0  0  0  0  0  0  0999 V2000
   -0.9948    0.4087    1.5817 O   0  0  0  0  0  0  0  0  0  0  0  0
   -0.6587    0.0546    0.3200 C   0  0  1  0  0  0  0  0  0  0  0  0
    0.7827   -0.2220    0.2178 C   0  0  0  0  0  0  0  0  0  0  0  0
    1.5759    0.9863    0.6260 C   0  0  0  0  0  0  0  0  0  0  0  0
    3.0044    0.7557    0.5260 N   0  0  0  0  0  0  0  0  0  0  0  0
    3.5267    0.6759   -0.7752 C   0  0  0  0  0  0  0  0  0  0  0  0
    4.2088   -0.5239   -1.2561 C   0  0  0  0  0  0  0  0  0  0  0  0
    4.7105   -1.4955   -0.2396 C   0  0  0  0  0  0  0  0  0  0  0  0
    4.7689   -0.8489    1.1122 C   0  0  0  0  0  0  0  0  0  0  0  0
    3.4425   -0.2472    1.4646 C   0  0  0  0  0  0  0  0  0  0  0  0
   -1.4330   -1.2280    0.0959 C   0  0  0  0  0  0  0  0  0  0  0  0
   -0.9153   -2.3658   -0.3947 C   0  0  0  0  0  0  0  0  0  0  0  0
   -1.7161   -3.4910   -0.5286 C   0  0  0  0  0  0  0  0  0  0  0  0
   -3.0541   -3.4729   -0.1648 C   0  0  0  0  0  0  0  0  0  0  0  0
   -3.6082   -2.3037    0.3447 C   0  0  0  0  0  0  0  0  0  0  0  0
   -2.7695   -1.2030    0.4588 C   0  0  0  0  0  0  0  0  0  0  0  0
   -1.1201    1.0994   -0.6602 C   0  0  0  0  0  0  0  0  0  0  0  0
   -2.6342    1.2481   -0.6507 C   0  0  0  0  0  0  0  0  0  0  0  0
   -3.1334    2.4868   -0.0182 C   0  0  0  0  0  0  0  0  0  0  0  0
   -2.4744    3.7430   -0.5206 C   0  0  0  0  0  0  0  0  0  0  0  0
   -1.0699    3.5390   -1.0078 C   0  0  0  0  0  0  0  0  0  0  0  0
   -0.4386    2.4042   -0.2536 C   0  0  0  0  0  0  0  0  0  0  0  0
  2  1  1  1
  2  3  1  0
  3  4  1  0
  4  5  1  0
  5  6  1  0
  6  7  1  0
  7  8  1  0
  8  9  1  0
  9 10  1  0
  2 11  1  0
 11 12  2  0
 12 13  1  0
 13 14  2  0
 14 15  1  0
 15 16  2  0
  2 17  1  0
 17 18  1  0
 18 19  1  0
 19 20  1  0
 20 21  1  0
 21 22  1  0
 10  5  1  0
 16 11  1  0
 22 17  1  0
M  END
>  <zinc_id>  (1) 
ZINC000000968273

>  <smiles>  (1) 
O[C@@](CCN1CCCCC1)(c1ccccc1)C1CCCCC1

$$$$
