
     RDKit          3D

 17 18  0  0  0  0  0  0  0  0999 V2000
   -3.8130    0.0460    1.4494 N   0  0  0  0  0  0  0  0  0  0  0  0
   -3.0235   -0.6086    0.0610 S   0  0  0  0  0  0  0  0  0  0  0  0
   -3.7763   -0.2174   -1.1843 O   0  0  0  0  0  0  0  0  0  0  0  0
   -2.9910   -2.0999    0.1820 O   0  0  0  0  0  0  0  0  0  0  0  0
   -1.3981    0.0289    0.0300 C   0  0  0  0  0  0  0  0  0  0  0  0
   -0.2922   -0.7991    0.0798 C   0  0  0  0  0  0  0  0  0  0  0  0
    0.9501   -0.2617    0.0533 C   0  0  0  0  0  0  0  0  0  0  0  0
    1.1447    1.1026   -0.0228 C   0  0  0  0  0  0  0  0  0  0  0  0
    0.0309    1.9069   -0.0713 C   0  0  0  0  0  0  0  0  0  0  0  0
   -1.2582    1.3985   -0.0465 C   0  0  0  0  0  0  0  0  0  0  0  0
   -2.6577    2.4734   -0.1110 Cl  0  0  0  0  0  0  0  0  0  0  0  0
    2.4907    1.6072   -0.0494 N   0  0  0  0  0  0  0  0  0  0  0  0
    3.5380    1.0010   -0.7929 C   0  0  0  0  0  0  0  0  0  0  0  0
    3.5927   -0.4135   -0.8253 N   0  0  0  0  0  0  0  0  0  0  0  0
    2.4280   -1.2305    0.1131 S   0  0  0  0  0  0  0  0  0  0  0  0
    2.1805   -2.5924   -0.4310 O   0  0  0  0  0  0  0  0  0  0  0  0
    2.8544   -1.3415    1.5660 O   0  0  0  0  0  0  0  0  0  0  0  0
  1  2  1  0
  2  3  2  0
  2  4  2  0
  2  5  1  0
  5  6  2  0
  6  7  1  0
  7  8  2  0
  8  9  1  0
  9 10  2  0
 10 11  1  0
  8 12  1  0
 12 13  1  0
 13 14  1  0
 14 15  1  0
 15 16  2  0
 15 17  2  0
 10  5  1  0
 15  7  1  0
M  END
>  <zinc_id>  (1) 
ZINC000000896569

>  <smiles>  (1) 
NS(=O)(=O)c1cc2c(cc1Cl)NCNS2(=O)=O

$$$$
