
     RDKit          3D

 22 25  0  0  0  0  0  0  0  0999 V2000
    5.4485   -0.5157   -1.0767 Cl  0  0  0  0  0  0  0  0  0  0  0  0
    3.7415   -0.4043   -0.7027 C   0  0  0  0  0  0  0  0  0  0  0  0
    3.2228    0.8322   -0.3728 C   0  0  0  0  0  0  0  0  0  0  0  0
    1.8821    0.9507   -0.0736 C   0  0  0  0  0  0  0  0  0  0  0  0
    1.0961   -0.1561   -0.1096 C   0  0  0  0  0  0  0  0  0  0  0  0
    1.5993   -1.4232   -0.4417 C   0  0  0  0  0  0  0  0  0  0  0  0
    2.9315   -1.5387   -0.7387 C   0  0  0  0  0  0  0  0  0  0  0  0
    0.9190   -2.7171   -0.5303 C   0  0  0  0  0  0  0  0  0  0  0  0
   -0.4449   -2.6909   -1.1421 C   0  0  0  0  0  0  0  0  0  0  0  0
   -1.4466   -2.0367   -0.2469 C   0  0  0  0  0  0  0  0  0  0  0  0
   -2.5703   -2.8008   -0.0125 C   0  0  0  0  0  0  0  0  0  0  0  0
   -3.5440   -2.2700    0.8012 C   0  0  0  0  0  0  0  0  0  0  0  0
   -3.4520   -1.0339    1.3830 C   0  0  0  0  0  0  0  0  0  0  0  0
   -2.3446   -0.2899    1.1475 N   0  0  0  0  0  0  0  0  0  0  0  0
   -1.3871   -0.7951    0.3558 C   0  0  0  0  0  0  0  0  0  0  0  0
   -0.2761    0.1746    0.2341 C   0  0  0  0  0  0  0  0  0  0  0  0
   -0.5888    1.4379    0.4603 C   0  0  0  0  0  0  0  0  0  0  0  0
    0.4572    2.4630    0.3569 C   0  0  0  0  0  0  0  0  0  0  0  0
    0.0551    3.6725   -0.4490 C   0  0  0  0  0  0  0  0  0  0  0  0
   -1.3729    3.8760   -0.4489 N   0  0  0  0  0  0  0  0  0  0  0  0
   -1.9640    3.3997    0.7876 C   0  0  0  0  0  0  0  0  0  0  0  0
   -1.9618    1.8660    0.8191 C   0  0  0  0  0  0  0  0  0  0  0  0
  1  2  1  0
  2  3  2  0
  3  4  1  0
  4  5  2  0
  5  6  1  0
  6  7  2  0
  6  8  1  0
  8  9  1  0
  9 10  1  0
 10 11  2  0
 11 12  1  0
 12 13  2  0
 13 14  1  0
 14 15  2  0
 15 16  1  0
 16 17  2  3
 17 18  1  0
 18 19  1  0
 19 20  1  0
 20 21  1  0
 21 22  1  0
  7  2  1  0
 15 10  1  0
 22 17  1  0
 16  5  1  0
M  END
>  <zinc_id>  (1) 
ZINC000000001261

>  <smiles>  (1) 
Clc1ccc2c(c1)CCc1cccnc1C2=C1CCNCC1

$$$$
