
     RDKit          3D

 10 10  0  0  0  0  0  0  0  0999 V2000
    2.2510    1.2944    0.2597 C   0  0  0  0  0  0  0  0  0  0  0  0
    1.0610    0.5004    0.0550 N   0  0  0  0  0  0  0  0  0  0  0  0
    1.0263   -0.9080   -0.0976 C   0  0  0  0  0  0  0  0  0  0  0  0
    2.0055   -1.6981   -0.0820 O   0  0  0  0  0  0  0  0  0  0  0  0
   -0.2820   -1.3310   -0.2750 O   0  0  0  0  0  0  0  0  0  0  0  0
   -1.1628   -0.2611    0.0159 C   0  0  0  0  0  0  0  0  0  0  0  0
   -1.7548   -0.5152    1.3703 C   0  0  0  0  0  0  0  0  0  0  0  0
   -2.2394   -0.1670   -1.0675 C   0  0  0  0  0  0  0  0  0  0  0  0
   -0.3065    0.9373   -0.0374 C   0  0  0  0  0  0  0  0  0  0  0  0
   -0.5984    2.1484   -0.1415 O   0  0  0  0  0  0  0  0  0  0  0  0
  1  2  1  0
  2  3  1  0
  3  4  2  0
  3  5  1  0
  5  6  1  0
  6  7  1  0
  6  8  1  0
  6  9  1  0
  9 10  2  0
  9  2  1  0
M  END
>  <zinc_id>  (1) 
ZINC000001530710

>  <smiles>  (1) 
CN1C(=O)OC(C)(C)C1=O

$$$$
