
     RDKit          3D

 34 34  0  0  0  0  0  0  0  0999 V2000
   -2.8780   -3.0049   -2.5459 C   0  0  0  0  0  0  0  0  0  0  0  0
   -2.1670   -2.2820   -2.1458 C   0  0  0  0  0  0  0  0  0  0  0  0
   -1.4052   -1.6103   -2.9504 O   0  0  0  0  0  0  0  0  0  0  0  0
   -1.9381   -1.9494   -0.7666 N   0  0  0  0  0  0  0  0  0  0  0  0
   -2.6703   -2.5047    0.3480 C   0  0  0  0  0  0  0  0  0  0  0  0
   -3.9263   -1.5724    0.6925 C   0  0  1  0  0  0  0  0  0  0  0  0
   -4.6406   -1.7239   -0.5998 O   0  0  0  0  0  0  0  0  0  0  0  0
   -4.7884   -2.7238    1.4701 C   0  0  0  0  0  0  0  0  0  0  0  0
   -4.6313   -3.9121    0.8302 O   0  0  0  0  0  0  0  0  0  0  0  0
   -0.9133   -1.0149   -0.4251 C   0  0  0  0  0  0  0  0  0  0  0  0
    0.1789   -1.5100    0.2588 C   0  0  0  0  0  0  0  0  0  0  0  0
    0.2890   -3.5613    0.7606 I   0  0  0  0  0  0  0  0  0  0  0  0
    1.2503   -0.7070    0.6497 C   0  0  0  0  0  0  0  0  0  0  0  0
    2.3892   -1.2676    1.3702 C   0  0  0  0  0  0  0  0  0  0  0  0
    2.3732   -2.4942    1.6234 O   0  0  0  0  0  0  0  0  0  0  0  0
    3.4538   -0.5136    1.7703 N   0  0  0  0  0  0  0  0  0  0  0  0
    4.6409   -0.5923    2.4045 C   0  0  0  0  0  0  0  0  0  0  0  0
    5.7778   -1.4985    1.7448 C   0  0  1  0  0  0  0  0  0  0  0  0
    5.0558   -2.7932    1.8206 O   0  0  0  0  0  0  0  0  0  0  0  0
    5.3455   -1.1986    0.1947 C   0  0  0  0  0  0  0  0  0  0  0  0
    5.8624   -2.2615   -0.5360 O   0  0  0  0  0  0  0  0  0  0  0  0
    1.1956    0.6454    0.3268 C   0  0  0  0  0  0  0  0  0  0  0  0
    2.7814    1.9217    0.8845 I   0  0  0  0  0  0  0  0  0  0  0  0
    0.1183    1.1641   -0.3547 C   0  0  0  0  0  0  0  0  0  0  0  0
    0.1139    2.5856   -0.6745 C   0  0  0  0  0  0  0  0  0  0  0  0
    1.0786    3.3281   -0.3634 O   0  0  0  0  0  0  0  0  0  0  0  0
   -0.9726    3.2150   -1.3519 N   0  0  0  0  0  0  0  0  0  0  0  0
   -0.9311    4.6281   -1.6511 C   0  0  0  0  0  0  0  0  0  0  0  0
   -0.7906    5.3571   -0.1924 C   0  0  1  0  0  0  0  0  0  0  0  0
   -0.7684    6.7532   -0.8151 O   0  0  0  0  0  0  0  0  0  0  0  0
   -2.4069    5.4122    0.0548 C   0  0  0  0  0  0  0  0  0  0  0  0
   -2.6396    4.1758    0.6491 O   0  0  0  0  0  0  0  0  0  0  0  0
   -0.9280    0.3247   -0.7242 C   0  0  0  0  0  0  0  0  0  0  0  0
   -2.5093    1.1852   -1.7563 I   0  0  0  0  0  0  0  0  0  0  0  0
  1  2  1  0
  2  3  2  0
  2  4  1  0
  4  5  1  0
  5  6  1  0
  6  7  1  6
  6  8  1  0
  8  9  1  0
  4 10  1  0
 10 11  2  0
 11 12  1  0
 11 13  1  0
 13 14  1  0
 14 15  2  0
 14 16  1  0
 16 17  1  0
 17 18  1  0
 18 19  1  1
 18 20  1  0
 20 21  1  0
 13 22  2  0
 22 23  1  0
 22 24  1  0
 24 25  1  0
 25 26  2  0
 25 27  1  0
 27 28  1  0
 28 29  1  0
 29 30  1  6
 29 31  1  0
 31 32  1  0
 24 33  2  0
 33 34  1  0
 33 10  1  0
M  END
>  <zinc_id>  (1) 
ZINC000008035377

>  <smiles>  (1) 
CC(=O)N(C[C@@H](O)CO)c1c(I)c(C(=O)NC[C@@H](O)CO)c(I)c(C(=O)NC[C@@H](O)CO)c1I

$$$$
