
     RDKit          3D

 25 26  0  0  0  0  0  0  0  0999 V2000
    1.0210    4.0249   -0.1073 C   0  0  0  0  0  0  0  0  0  0  0  0
   -0.0753    4.8219   -0.7605 C   0  0  0  0  0  0  0  0  0  0  0  0
   -1.3912    4.4115   -0.1700 C   0  0  0  0  0  0  0  0  0  0  0  0
   -1.7193    2.9741   -0.3564 C   0  0  0  0  0  0  0  0  0  0  0  0
   -0.7785    2.0443    0.2290 N   0  0  0  0  0  0  0  0  0  0  0  0
   -1.1017    0.6522    0.0612 C   0  0  0  0  0  0  0  0  0  0  0  0
   -2.2130    0.2153   -0.6075 C   0  0  0  0  0  0  0  0  0  0  0  0
   -2.5053   -1.1043   -0.7554 C   0  0  0  0  0  0  0  0  0  0  0  0
   -3.6839   -1.5947   -1.4643 C   0  0  0  0  0  0  0  0  0  0  0  0
   -3.9299   -2.8105   -1.5863 O   0  0  0  0  0  0  0  0  0  0  0  0
   -4.5529   -0.6756   -2.0168 O   0  0  0  0  0  0  0  0  0  0  0  0
   -1.6545   -2.0220   -0.2142 C   0  0  0  0  0  0  0  0  0  0  0  0
   -0.5226   -1.6589    0.4690 C   0  0  0  0  0  0  0  0  0  0  0  0
    0.4864   -2.9046    1.1319 S   0  0  0  0  0  0  0  0  0  0  0  0
    0.5819   -2.6816    2.8581 N   0  0  0  0  0  0  0  0  0  0  0  0
    1.8168   -3.0451    0.5221 O   0  0  0  0  0  0  0  0  0  0  0  0
   -0.2171   -4.2494    0.9605 O   0  0  0  0  0  0  0  0  0  0  0  0
   -0.2602   -0.3169    0.5976 C   0  0  0  0  0  0  0  0  0  0  0  0
    0.8577    0.0843    1.2717 O   0  0  0  0  0  0  0  0  0  0  0  0
    2.0710    0.3577    0.6239 C   0  0  0  0  0  0  0  0  0  0  0  0
    3.2030    0.6997    1.3400 C   0  0  0  0  0  0  0  0  0  0  0  0
    4.4081    0.9750    0.7339 C   0  0  0  0  0  0  0  0  0  0  0  0
    4.5259    0.9172   -0.6316 C   0  0  0  0  0  0  0  0  0  0  0  0
    3.4163    0.5792   -1.3753 C   0  0  0  0  0  0  0  0  0  0  0  0
    2.2172    0.3065   -0.7532 C   0  0  0  0  0  0  0  0  0  0  0  0
  1  2  1  0
  2  3  1  0
  3  4  1  0
  4  5  1  0
  5  6  1  0
  6  7  2  0
  7  8  1  0
  8  9  1  0
  9 10  2  0
  9 11  1  0
  8 12  2  0
 12 13  1  0
 13 14  1  0
 14 15  1  0
 14 16  2  0
 14 17  2  0
 13 18  2  0
 18 19  1  0
 19 20  1  0
 20 21  2  0
 21 22  1  0
 22 23  2  0
 23 24  1  0
 24 25  2  0
 18  6  1  0
 25 20  1  0
M  END
>  <zinc_id>  (1) 
ZINC000003813061

>  <smiles>  (1) 
CCCCNc1cc(C(=O)O)cc(S(N)(=O)=O)c1Oc1ccccc1

$$$$
