
     RDKit          3D

 25 26  0  0  0  0  0  0  0  0999 V2000
    6.8276   -0.8425    1.6192 C   0  0  0  0  0  0  0  0  0  0  0  0
    5.6988   -1.3482    0.7393 C   0  0  0  0  0  0  0  0  0  0  0  0
    5.5006   -0.3335   -0.3986 C   0  0  0  0  0  0  0  0  0  0  0  0
    5.1606    0.9862    0.3057 C   0  0  0  0  0  0  0  0  0  0  0  0
    4.0084    0.7550    1.0503 O   0  0  0  0  0  0  0  0  0  0  0  0
    2.8055    0.3568    0.4229 C   0  0  0  0  0  0  0  0  0  0  0  0
    1.6862    0.1273    1.1708 C   0  0  0  0  0  0  0  0  0  0  0  0
    0.4697   -0.2687    0.5805 C   0  0  0  0  0  0  0  0  0  0  0  0
   -0.6833   -0.4979    1.3936 C   0  0  0  0  0  0  0  0  0  0  0  0
   -0.5477   -0.4888    2.6489 O   0  0  0  0  0  0  0  0  0  0  0  0
   -1.9827   -0.7360    0.8648 N   0  0  0  0  0  0  0  0  0  0  0  0
   -3.0798   -0.9716    1.7871 C   0  0  0  0  0  0  0  0  0  0  0  0
   -4.3786   -1.1823    1.1634 C   0  0  0  0  0  0  0  0  0  0  0  0
   -4.9755   -0.1953    0.3731 N   0  0  0  0  0  0  0  0  0  0  0  0
   -4.4455    0.1496   -0.8862 C   0  0  0  0  0  0  0  0  0  0  0  0
   -4.6833   -1.0444   -1.8243 C   0  0  0  0  0  0  0  0  0  0  0  0
   -6.2192    0.3573    0.7615 C   0  0  0  0  0  0  0  0  0  0  0  0
   -6.1594    1.2061    2.0217 C   0  0  0  0  0  0  0  0  0  0  0  0
    0.4194   -0.4274   -0.7882 C   0  0  0  0  0  0  0  0  0  0  0  0
   -0.7609   -0.8205   -1.4143 C   0  0  0  0  0  0  0  0  0  0  0  0
   -0.7992   -0.9748   -2.7807 C   0  0  0  0  0  0  0  0  0  0  0  0
    0.3356   -0.7399   -3.5160 C   0  0  0  0  0  0  0  0  0  0  0  0
    1.5045   -0.3498   -2.8790 C   0  0  0  0  0  0  0  0  0  0  0  0
    1.5754   -0.1845   -1.5071 C   0  0  0  0  0  0  0  0  0  0  0  0
    2.7226    0.1946   -0.9085 N   0  0  0  0  0  0  0  0  0  0  0  0
  1  2  1  0
  2  3  1  0
  3  4  1  0
  4  5  1  0
  5  6  1  0
  6  7  2  0
  7  8  1  0
  8  9  1  0
  9 10  2  0
  9 11  1  0
 11 12  1  0
 12 13  1  0
 13 14  1  0
 14 15  1  0
 15 16  1  0
 14 17  1  0
 17 18  1  0
  8 19  2  0
 19 20  1  0
 20 21  2  0
 21 22  1  0
 22 23  2  0
 23 24  1  0
 24 25  2  0
 25  6  1  0
 24 19  1  0
M  END
>  <zinc_id>  (1) 
ZINC000001530939

>  <smiles>  (1) 
CCCCOc1cc(C(=O)NCCN(CC)CC)c2ccccc2n1

$$$$
