
     RDKit          3D

 31 34  0  0  0  0  0  0  0  0999 V2000
    7.7233    0.9253    1.9755 C   0  0  0  0  0  0  0  0  0  0  0  0
    7.0594    0.0356    0.9825 C   0  0  0  0  0  0  0  0  0  0  0  0
    5.5852    0.3203    0.8107 C   0  0  0  0  0  0  0  0  0  0  0  0
    4.8987    0.1233    2.1470 C   0  0  0  0  0  0  0  0  0  0  0  0
    3.4117    0.3928    2.0511 C   0  0  0  0  0  0  0  0  0  0  0  0
    2.7393   -0.4946    1.0915 C   0  0  0  0  0  0  0  0  0  0  0  0
    2.3835   -1.6751    1.3152 O   0  0  0  0  0  0  0  0  0  0  0  0
    2.4612   -0.0334   -0.1568 O   0  0  0  0  0  0  0  0  0  0  0  0
    1.8549   -0.6322   -1.2408 C   0  0  2  0  0  0  0  0  0  0  0  0
    2.4859   -1.8200   -1.8031 C   0  0  0  0  0  0  0  0  0  0  0  0
    3.7470   -2.3831   -1.3141 C   0  0  0  0  0  0  0  0  0  0  0  0
    1.9335   -2.3973   -2.7530 O   0  0  0  0  0  0  0  0  0  0  0  0
    1.8321    0.5370   -2.2734 C   0  0  0  0  0  0  0  0  0  0  0  0
    0.7200    1.4554   -1.7916 C   0  0  0  0  0  0  0  0  0  0  0  0
    0.1990    0.7106   -0.4652 C   0  0  1  0  0  0  0  0  0  0  0  0
   -1.4259    0.8462   -0.8948 C   0  0  2  0  0  0  0  0  0  0  0  0
   -1.5549    2.2785   -0.1553 C   0  0  0  0  0  0  0  0  0  0  0  0
   -2.9476    2.6879   -0.4575 C   0  0  0  0  0  0  0  0  0  0  0  0
   -3.8507    1.5646   -0.0946 C   0  0  0  0  0  0  0  0  0  0  0  0
   -5.1534    1.7999   -0.0206 C   0  0  0  0  0  0  0  0  0  0  0  0
   -6.0279    0.6879    0.3364 C   0  0  0  0  0  0  0  0  0  0  0  0
   -7.1006    0.4102   -0.2627 O   0  0  0  0  0  0  0  0  0  0  0  0
   -5.5649   -0.1411    1.5019 C   0  0  0  0  0  0  0  0  0  0  0  0
   -4.0474   -0.0816    1.6140 C   0  0  0  0  0  0  0  0  0  0  0  0
   -3.4949    0.1953    0.1996 C   0  0  1  0  0  0  0  0  0  0  0  0
   -4.0777   -0.7919   -0.7038 C   0  0  0  0  0  0  0  0  0  0  0  0
   -1.9341    0.0144    0.4643 C   0  0  1  0  0  0  0  0  0  0  0  0
   -1.7371   -1.4373   -0.2045 C   0  0  0  0  0  0  0  0  0  0  0  0
   -0.2503   -1.7221   -0.2802 C   0  0  0  0  0  0  0  0  0  0  0  0
    0.3555   -0.7388   -1.1536 C   0  0  2  0  0  0  0  0  0  0  0  0
   -0.2228   -0.6366   -2.5426 C   0  0  0  0  0  0  0  0  0  0  0  0
  1  2  1  0
  2  3  1  0
  3  4  1  0
  4  5  1  0
  5  6  1  0
  6  7  2  0
  6  8  1  0
  9  8  1  1
  9 10  1  0
 10 11  1  0
 10 12  2  0
  9 13  1  0
 13 14  1  0
 15 14  1  6
 15 16  1  0
 16 17  1  1
 17 18  1  0
 18 19  1  0
 19 20  2  0
 20 21  1  0
 21 22  2  0
 21 23  1  0
 23 24  1  0
 24 25  1  0
 25 26  1  6
 25 27  1  0
 27 28  1  6
 28 29  1  0
 29 30  1  0
 30 31  1  6
 30  9  1  0
 30 15  1  0
 27 16  1  0
 25 19  1  0
M  END
>  <zinc_id>  (1) 
ZINC000004083606

>  <smiles>  (1) 
CCCCCC(=O)O[C@]1(C(C)=O)CC[C@H]2[C@@H]3CCC4=CC(=O)CC[C@]4(C)[C@H]3CC[C@@]21C

$$$$
