
     RDKit          3D

 20 19  0  0  0  0  0  0  0  0999 V2000
    8.6019    1.9365    0.8847 C   0  0  0  0  0  0  0  0  0  0  0  0
    7.4991    1.9482   -0.1508 C   0  0  0  0  0  0  0  0  0  0  0  0
    6.5577    0.7772    0.0435 C   0  0  0  0  0  0  0  0  0  0  0  0
    5.4980    0.8666   -1.0230 C   0  0  0  0  0  0  0  0  0  0  0  0
    4.5581   -0.2874   -0.8428 C   0  0  0  0  0  0  0  0  0  0  0  0
    3.9205   -0.2105    0.5409 C   0  0  0  0  0  0  0  0  0  0  0  0
    2.9862   -1.4154    0.6351 C   0  0  0  0  0  0  0  0  0  0  0  0
    1.9699   -1.2467   -0.4991 C   0  0  0  0  0  0  0  0  0  0  0  0
    1.2660    0.0772   -0.2192 C   0  0  0  0  0  0  0  0  0  0  0  0
    0.2551    0.2947   -1.3036 C   0  0  0  0  0  0  0  0  0  0  0  0
   -0.7380   -0.8364   -1.2991 C   0  0  0  0  0  0  0  0  0  0  0  0
   -1.4211   -0.8588    0.0536 C   0  0  0  0  0  0  0  0  0  0  0  0
   -2.4155   -2.0028    0.0376 C   0  0  0  0  0  0  0  0  0  0  0  0
   -3.4520   -1.7904   -1.0764 C   0  0  0  0  0  0  0  0  0  0  0  0
   -4.1317   -0.4593   -0.7259 C   0  0  0  0  0  0  0  0  0  0  0  0
   -4.7504   -0.6784    0.6514 C   0  0  0  0  0  0  0  0  0  0  0  0
   -5.4645    0.5299    1.1602 C   0  0  0  0  0  0  0  0  0  0  0  0
   -6.5751    0.9433    0.2623 C   0  0  0  0  0  0  0  0  0  0  0  0
   -6.8644    0.3343   -0.7980 O   0  0  0  0  0  0  0  0  0  0  0  0
   -7.3000    2.0782    0.6733 O   0  0  0  0  0  0  0  0  0  0  0  0
  1  2  1  0
  2  3  1  0
  3  4  1  0
  4  5  1  0
  5  6  1  0
  6  7  1  0
  7  8  1  0
  8  9  1  0
  9 10  1  0
 10 11  1  0
 11 12  1  0
 12 13  1  0
 13 14  1  0
 14 15  1  0
 15 16  1  0
 16 17  1  0
 17 18  1  0
 18 19  2  0
 18 20  1  0
M  END
>  <zinc_id>  (1) 
ZINC000004978673

>  <smiles>  (1) 
CCCCCCCCCCCCCCCCCC(=O)O

$$$$
