
     RDKit          3D

 24 26  0  0  0  0  0  0  0  0999 V2000
   -5.2731   -1.2554    0.3085 C   0  0  0  0  0  0  0  0  0  0  0  0
   -4.1088   -1.0640    0.0519 C   0  0  0  0  0  0  0  0  0  0  0  0
   -3.5988    0.1464    0.1828 C   0  0  0  0  0  0  0  0  0  0  0  0
   -4.4755    1.2619    0.6476 C   0  0  0  0  0  0  0  0  0  0  0  0
   -4.0886    2.4349    0.8092 O   0  0  0  0  0  0  0  0  0  0  0  0
   -5.8180    0.9914    0.9227 O   0  0  0  0  0  0  0  0  0  0  0  0
   -2.2499    0.5688   -0.0735 N   0  0  0  0  0  0  0  0  0  0  0  0
   -1.1675    1.3576    0.3525 C   0  0  0  0  0  0  0  0  0  0  0  0
   -0.8876    2.1307    1.2357 O   0  0  0  0  0  0  0  0  0  0  0  0
   -0.3344    0.8443   -0.8419 C   0  0  1  0  0  0  0  0  0  0  0  0
    0.5503   -0.2204   -0.1468 N   0  0  0  0  0  0  0  0  0  0  0  0
    1.5990    0.1897    0.6792 C   0  0  0  0  0  0  0  0  0  0  0  0
    1.8181    1.4039    0.8513 O   0  0  0  0  0  0  0  0  0  0  0  0
    2.5358   -0.8467    1.4224 C   0  0  1  0  0  0  0  0  0  0  0  0
    2.0247   -2.1117    0.6502 N   0  0  0  0  0  0  0  0  0  0  0  0
    3.8459   -0.6120    0.5973 C   0  0  0  0  0  0  0  0  0  0  0  0
    4.1926    0.6901    0.3705 C   0  0  0  0  0  0  0  0  0  0  0  0
    5.3618    0.9976   -0.3655 C   0  0  0  0  0  0  0  0  0  0  0  0
    6.1073   -0.0293   -0.8258 C   0  0  0  0  0  0  0  0  0  0  0  0
    5.7593   -1.3280   -0.5981 C   0  0  0  0  0  0  0  0  0  0  0  0
    4.6177   -1.5856    0.1197 C   0  0  0  0  0  0  0  0  0  0  0  0
   -1.6344   -0.0182   -1.3053 C   0  0  1  0  0  0  0  0  0  0  0  0
   -1.5171   -1.7529   -0.5914 S   0  0  0  0  0  0  0  0  0  0  0  0
   -3.2590   -2.1932   -0.3955 C   0  0  0  0  0  0  0  0  0  0  0  0
  1  2  1  0
  2  3  2  0
  3  4  1  0
  4  5  2  0
  4  6  1  0
  3  7  1  0
  7  8  1  0
  8  9  2  0
  8 10  1  0
 10 11  1  1
 11 12  1  0
 12 13  2  0
 12 14  1  0
 14 15  1  6
 14 16  1  0
 16 17  2  0
 17 18  1  0
 18 19  2  0
 19 20  1  0
 20 21  2  0
 10 22  1  0
 22 23  1  1
 23 24  1  0
 24  2  1  0
 22  7  1  0
 21 16  1  0
M  END
>  <zinc_id>  (1) 
ZINC000003830500

>  <smiles>  (1) 
CC1=C(C(=O)O)N2C(=O)[C@@H](NC(=O)[C@H](N)c3ccccc3)[C@H]2SC1

$$$$
