
     RDKit          3D

 26 28  0  0  0  0  0  0  0  0999 V2000
    1.7046    0.9040   -0.8787 O   0  0  0  0  0  0  0  0  0  0  0  0
    1.2733    0.0246   -0.1078 C   0  0  0  0  0  0  0  0  0  0  0  0
    2.1728   -0.6537    0.7358 N   0  0  0  0  0  0  0  0  0  0  0  0
    3.5719   -0.4127    0.7835 C   0  0  0  0  0  0  0  0  0  0  0  0
    4.1000    0.5252    1.6456 C   0  0  0  0  0  0  0  0  0  0  0  0
    2.9563    1.3939    2.6690 Cl  0  0  0  0  0  0  0  0  0  0  0  0
    5.4624    0.7803    1.7124 C   0  0  0  0  0  0  0  0  0  0  0  0
    6.3031    0.0949    0.9135 N   0  0  0  0  0  0  0  0  0  0  0  0
    5.8245   -0.8249    0.0625 C   0  0  0  0  0  0  0  0  0  0  0  0
    4.4674   -1.0943   -0.0193 C   0  0  0  0  0  0  0  0  0  0  0  0
    3.9167   -2.2925   -1.1379 Cl  0  0  0  0  0  0  0  0  0  0  0  0
   -0.1410   -0.3113   -0.0660 C   0  0  0  0  0  0  0  0  0  0  0  0
   -0.5882   -1.2884    0.7965 C   0  0  0  0  0  0  0  0  0  0  0  0
   -1.9212   -1.5993    0.8304 C   0  0  0  0  0  0  0  0  0  0  0  0
   -2.8593   -0.9747    0.0319 C   0  0  0  0  0  0  0  0  0  0  0  0
   -4.2016   -1.2733    0.0520 O   0  0  0  0  0  0  0  0  0  0  0  0
   -4.7894   -2.2411    0.8769 C   0  0  0  0  0  0  0  0  0  0  0  0
   -6.1578   -2.2524    0.6116 F   0  0  0  0  0  0  0  0  0  0  0  0
   -4.6436   -1.8986    2.2191 F   0  0  0  0  0  0  0  0  0  0  0  0
   -2.4046    0.0017   -0.8284 C   0  0  0  0  0  0  0  0  0  0  0  0
   -3.3405    0.6487   -1.6484 O   0  0  0  0  0  0  0  0  0  0  0  0
   -2.8756    1.6430   -2.5241 C   0  0  0  0  0  0  0  0  0  0  0  0
   -2.2045    2.7843   -1.7624 C   0  0  0  0  0  0  0  0  0  0  0  0
   -1.6655    3.9108   -2.5960 C   0  0  0  0  0  0  0  0  0  0  0  0
   -2.8913    4.0864   -1.7624 C   0  0  0  0  0  0  0  0  0  0  0  0
   -1.0690    0.3193   -0.8683 C   0  0  0  0  0  0  0  0  0  0  0  0
  1  2  2  0
  2  3  1  0
  3  4  1  0
  4  5  2  0
  5  6  1  0
  5  7  1  0
  7  8  2  0
  8  9  1  0
  9 10  2  0
 10 11  1  0
  2 12  1  0
 12 13  2  0
 13 14  1  0
 14 15  2  0
 15 16  1  0
 16 17  1  0
 17 18  1  0
 17 19  1  0
 15 20  1  0
 20 21  1  0
 21 22  1  0
 22 23  1  0
 23 24  1  0
 24 25  1  0
 20 26  2  0
 10  4  1  0
 26 12  1  0
 25 23  1  0
M  END
>  <zinc_id>  (1) 
ZINC000000592419

>  <smiles>  (1) 
O=C(Nc1c(Cl)cncc1Cl)c1ccc(OC(F)F)c(OCC2CC2)c1

$$$$
