
     RDKit          3D

 19 19  0  0  0  0  0  0  0  0999 V2000
   -4.0380    0.8760    0.9385 C   0  0  0  0  0  0  0  0  0  0  0  0
   -4.3085    0.6022    0.7822 C   0  0  0  0  0  0  0  0  0  0  0  0
   -5.7627    0.2413    1.1389 C   0  0  0  0  0  0  0  0  0  0  0  0
   -3.7939   -0.4303   -0.1390 N   0  0  0  0  0  0  0  0  0  0  0  0
   -3.2393    0.1809   -1.3206 C   0  0  0  0  0  0  0  0  0  0  0  0
   -2.7437   -1.1031   -2.2271 C   0  0  1  0  0  0  0  0  0  0  0  0
   -2.2126   -0.1892   -3.3373 O   0  0  0  0  0  0  0  0  0  0  0  0
   -1.2769   -1.2474   -1.4791 C   0  0  0  0  0  0  0  0  0  0  0  0
   -0.8759    0.0047   -1.0796 O   0  0  0  0  0  0  0  0  0  0  0  0
    0.2727    0.2826   -0.4415 C   0  0  0  0  0  0  0  0  0  0  0  0
    0.5620    1.6169   -0.0969 C   0  0  0  0  0  0  0  0  0  0  0  0
    1.7984    1.7898    0.5529 C   0  0  0  0  0  0  0  0  0  0  0  0
    2.6681    0.7850    0.8477 C   0  0  0  0  0  0  0  0  0  0  0  0
    3.9824    1.0339    1.4708 C   0  0  0  0  0  0  0  0  0  0  0  0
    4.8731   -0.1376    1.3797 C   0  0  0  0  0  0  0  0  0  0  0  0
    5.8959   -0.2949    0.4187 N   0  0  0  0  0  0  0  0  0  0  0  0
    4.6955   -1.0743    2.2307 O   0  0  0  0  0  0  0  0  0  0  0  0
    2.3510   -0.5073    0.5003 C   0  0  0  0  0  0  0  0  0  0  0  0
    1.1522   -0.7241   -0.1393 C   0  0  0  0  0  0  0  0  0  0  0  0
  1  2  1  0
  2  3  1  0
  2  4  1  0
  4  5  1  0
  5  6  1  0
  6  7  1  6
  6  8  1  0
  8  9  1  0
  9 10  1  0
 10 11  2  0
 11 12  1  0
 12 13  2  0
 13 14  1  0
 14 15  1  0
 15 16  1  0
 15 17  2  0
 13 18  1  0
 18 19  2  0
 19 10  1  0
M  END
>  <zinc_id>  (1) 
ZINC000000014007

>  <smiles>  (1) 
CC(C)NC[C@@H](O)COc1ccc(CC(N)=O)cc1

$$$$
