
     RDKit          3D

 37 38  0  0  0  0  0  0  0  0999 V2000
    5.5545   -2.3798   -6.2177 C   0  0  0  0  0  0  0  0  0  0  0  0
    4.7742   -1.1867   -5.7354 C   0  0  0  0  0  0  0  0  0  0  0  0
    5.5893    0.0994   -5.9219 C   0  0  0  0  0  0  0  0  0  0  0  0
    4.7597    1.2806   -5.4270 C   0  0  0  0  0  0  0  0  0  0  0  0
    4.4327    1.0740   -3.9510 C   0  0  0  0  0  0  0  0  0  0  0  0
    5.6755    0.9852   -3.1281 C   0  0  0  0  0  0  0  0  0  0  0  0
    5.4547    0.7889   -1.6789 C   0  0  0  0  0  0  0  0  0  0  0  0
    4.7104   -0.4467   -1.2927 C   0  0  0  0  0  0  0  0  0  0  0  0
    4.6220   -0.4398    0.2446 C   0  0  0  0  0  0  0  0  0  0  0  0
    6.0232   -0.4314    0.7795 C   0  0  0  0  0  0  0  0  0  0  0  0
    6.0443   -0.4320    2.2760 C   0  0  0  0  0  0  0  0  0  0  0  0
    5.3440    0.7570    2.8555 C   0  0  0  0  0  0  0  0  0  0  0  0
    3.8925    0.8611    2.5255 C   0  0  0  0  0  0  0  0  0  0  0  0
    3.3582    2.1130    3.1765 C   0  0  0  0  0  0  0  0  0  0  0  0
    1.9039    2.3403    2.9606 C   0  0  0  0  0  0  0  0  0  0  0  0
    1.5115    2.4791    1.5155 C   0  0  0  0  0  0  0  0  0  0  0  0
    0.1051    2.6985    1.4167 N   0  0  0  0  0  0  0  0  0  0  0  0
   -0.5118    2.7735    2.7307 C   0  0  0  0  0  0  0  0  0  0  0  0
   -0.0919    4.0173    0.8043 C   0  0  0  0  0  0  0  0  0  0  0  0
   -0.6064    1.7592    0.6015 C   0  0  0  0  0  0  0  0  0  0  0  0
   -1.6040    0.9744    1.4279 C   0  0  0  0  0  0  0  0  0  0  0  0
   -2.2993    0.0556    0.5598 N   0  0  0  0  0  0  0  0  0  0  0  0
   -3.2181    0.5926   -0.4526 C   0  0  0  0  0  0  0  0  0  0  0  0
   -4.6025    0.2119   -0.0655 C   0  0  0  0  0  0  0  0  0  0  0  0
   -5.2240    0.9234    0.9338 C   0  0  0  0  0  0  0  0  0  0  0  0
   -6.4901    0.6392    1.3652 C   0  0  0  0  0  0  0  0  0  0  0  0
   -7.1864   -0.4012    0.7844 C   0  0  0  0  0  0  0  0  0  0  0  0
   -8.4841   -0.7231    1.1982 O   0  0  0  0  0  0  0  0  0  0  0  0
   -9.0956    0.0281    2.2275 C   0  0  0  0  0  0  0  0  0  0  0  0
   -6.5799   -1.1215   -0.2140 C   0  0  0  0  0  0  0  0  0  0  0  0
   -5.3019   -0.8283   -0.6431 C   0  0  0  0  0  0  0  0  0  0  0  0
   -2.1688   -1.3500    0.6345 C   0  0  0  0  0  0  0  0  0  0  0  0
   -1.3693   -2.0038   -0.2073 N   0  0  0  0  0  0  0  0  0  0  0  0
   -1.2658   -3.3696   -0.1285 C   0  0  0  0  0  0  0  0  0  0  0  0
   -1.9789   -4.0635    0.8098 C   0  0  0  0  0  0  0  0  0  0  0  0
   -2.7998   -3.3403    1.6702 C   0  0  0  0  0  0  0  0  0  0  0  0
   -2.8773   -2.0140    1.5657 N   0  0  0  0  0  0  0  0  0  0  0  0
  1  2  1  0
  2  3  1  0
  3  4  1  0
  4  5  1  0
  5  6  1  0
  6  7  1  0
  7  8  1  0
  8  9  1  0
  9 10  1  0
 10 11  1  0
 11 12  1  0
 12 13  1  0
 13 14  1  0
 14 15  1  0
 15 16  1  0
 16 17  1  0
 17 18  1  0
 17 19  1  0
 17 20  1  0
 20 21  1  0
 21 22  1  0
 22 23  1  0
 23 24  1  0
 24 25  2  0
 25 26  1  0
 26 27  2  0
 27 28  1  0
 28 29  1  0
 27 30  1  0
 30 31  2  0
 22 32  1  0
 32 33  2  0
 33 34  1  0
 34 35  2  0
 35 36  1  0
 36 37  2  0
 31 24  1  0
 37 32  1  0
M  CHG  1  17   1
M  END
>  <zinc_id>  (1) 
ZINC000008035268

>  <smiles>  (1) 
CCCCCCCCCCCCCCCC[N+](C)(C)CCN(Cc1ccc(OC)cc1)c1ncccn1

$$$$
