
     RDKit          3D

 20 20  0  0  0  0  0  0  0  0999 V2000
   -2.7177    0.7844   -1.0001 O   0  0  0  0  0  0  0  0  0  0  0  0
   -3.1498   -0.3123   -0.9402 C   0  0  0  0  0  0  0  0  0  0  0  0
   -2.4406   -1.1750   -0.0966 N   0  0  0  0  0  0  0  0  0  0  0  0
   -1.1979   -0.6925    0.6804 C   0  0  2  0  0  0  0  0  0  0  0  0
   -1.9264    0.5916    1.3882 C   0  0  0  0  0  0  0  0  0  0  0  0
   -2.9698    0.0529    2.1381 O   0  0  0  0  0  0  0  0  0  0  0  0
   -0.5650    0.2721   -0.5810 C   0  0  2  0  0  0  0  0  0  0  0  0
   -0.4338   -0.9065   -1.4938 O   0  0  0  0  0  0  0  0  0  0  0  0
    0.9334    0.2863   -0.1020 C   0  0  0  0  0  0  0  0  0  0  0  0
    1.8323    0.2401   -1.1400 C   0  0  0  0  0  0  0  0  0  0  0  0
    3.2170    0.2508   -0.8880 C   0  0  0  0  0  0  0  0  0  0  0  0
    3.6837    0.3074    0.4068 C   0  0  0  0  0  0  0  0  0  0  0  0
    5.0780    0.3174    0.6995 N   0  0  0  0  0  0  0  0  0  0  0  0
    5.8669    0.2721   -0.2591 O   0  0  0  0  0  0  0  0  0  0  0  0
    5.5949    0.3714    1.9664 O   0  0  0  0  0  0  0  0  0  0  0  0
    2.7193    0.3507    1.3859 C   0  0  0  0  0  0  0  0  0  0  0  0
    1.3644    0.3400    1.1290 C   0  0  0  0  0  0  0  0  0  0  0  0
   -4.3483   -0.6705   -1.7238 C   0  0  0  0  0  0  0  0  0  0  0  0
   -4.8965    0.7232   -2.6684 Cl  0  0  0  0  0  0  0  0  0  0  0  0
   -5.6441   -1.4038   -0.7951 Cl  0  0  0  0  0  0  0  0  0  0  0  0
  1  2  2  0
  2  3  1  0
  3  4  1  0
  4  5  1  1
  5  6  1  0
  4  7  1  0
  7  8  1  6
  7  9  1  0
  9 10  2  0
 10 11  1  0
 11 12  2  0
 12 13  1  0
 13 14  2  0
 13 15  1  0
 12 16  1  0
 16 17  2  0
  2 18  1  0
 18 19  1  0
 18 20  1  0
 17  9  1  0
M  CHG  2  13   1  15  -1
M  END
>  <zinc_id>  (1) 
ZINC000000113382

>  <smiles>  (1) 
O=C(N[C@H](CO)[C@H](O)c1ccc([N+](=O)[O-])cc1)C(Cl)Cl

$$$$
