
     RDKit          3D

 26 29  0  0  0  0  0  0  0  0999 V2000
    5.5642    1.2334   -0.9556 C   0  0  0  0  0  0  0  0  0  0  0  0
    4.6037    0.6626   -0.3387 N   0  0  1  0  0  0  0  0  0  0  0  0
    4.9066   -0.7070    0.0478 C   0  0  0  0  0  0  0  0  0  0  0  0
    4.0891   -0.9103    1.3618 C   0  0  0  0  0  0  0  0  0  0  0  0
    2.7377   -0.1941    1.0316 C   0  0  1  0  0  0  0  0  0  0  0  0
    2.8957    1.2498    1.1908 C   0  0  0  0  0  0  0  0  0  0  0  0
    4.4115    1.4391    0.9100 C   0  0  0  0  0  0  0  0  0  0  0  0
    2.4794   -0.6339   -0.4756 C   0  0  1  0  0  0  0  0  0  0  0  0
    1.1667    0.0943   -0.7110 O   0  0  0  0  0  0  0  0  0  0  0  0
    0.0433   -0.5228   -0.1327 C   0  0  0  0  0  0  0  0  0  0  0  0
    0.2787   -1.5022    0.6215 O   0  0  0  0  0  0  0  0  0  0  0  0
   -1.2988   -0.0758   -0.3871 C   0  0  0  0  0  0  0  0  0  0  0  0
   -1.4083    0.1557   -1.8169 O   0  0  0  0  0  0  0  0  0  0  0  0
   -1.9235    1.0948    0.2030 C   0  0  0  0  0  0  0  0  0  0  0  0
   -3.0390    1.6457   -0.4567 C   0  0  0  0  0  0  0  0  0  0  0  0
   -3.7876    2.6760   -0.0322 C   0  0  0  0  0  0  0  0  0  0  0  0
   -3.3958    3.2452    1.1696 C   0  0  0  0  0  0  0  0  0  0  0  0
   -2.3488    2.7640    1.8511 C   0  0  0  0  0  0  0  0  0  0  0  0
   -1.5971    1.6930    1.3851 C   0  0  0  0  0  0  0  0  0  0  0  0
   -2.2153   -1.2473   -0.0544 C   0  0  0  0  0  0  0  0  0  0  0  0
   -2.8822   -1.3071    1.1775 C   0  0  0  0  0  0  0  0  0  0  0  0
   -3.5989   -2.4245    1.4000 C   0  0  0  0  0  0  0  0  0  0  0  0
   -3.7019   -3.4398    0.5252 C   0  0  0  0  0  0  0  0  0  0  0  0
   -3.0378   -3.4079   -0.7303 C   0  0  0  0  0  0  0  0  0  0  0  0
   -2.3182   -2.2894   -0.9450 C   0  0  0  0  0  0  0  0  0  0  0  0
    3.3766    0.7086   -1.0725 C   0  0  0  0  0  0  0  0  0  0  0  0
  2  1  1  6
  2  3  1  0
  3  4  1  0
  5  4  1  6
  5  6  1  0
  6  7  1  0
  5  8  1  0
  8  9  1  6
  9 10  1  0
 10 11  2  0
 10 12  1  0
 12 13  1  0
 12 14  1  0
 14 15  2  0
 15 16  1  0
 16 17  2  0
 17 18  1  0
 18 19  2  0
 12 20  1  0
 20 21  2  0
 21 22  1  0
 22 23  2  0
 23 24  1  0
 24 25  2  0
  8 26  1  0
  7  2  1  0
 19 14  1  0
 25 20  1  0
 26  2  1  0
M  CHG  1   2   1
M  END
>  <zinc_id>  (1) 
ZINC000003830579

>  <smiles>  (1) 
C[N+]12CCC(CC1)[C@@H](OC(=O)C(O)(c1ccccc1)c1ccccc1)C2

$$$$
