
     RDKit          3D

 27 30  0  0  0  0  0  0  0  0999 V2000
    7.3689   -0.3559    1.4184 O   0  0  0  0  0  0  0  0  0  0  0  0
    6.3918   -0.3999    0.6546 C   0  0  0  0  0  0  0  0  0  0  0  0
    6.6032   -0.4659   -0.8128 C   0  0  0  0  0  0  0  0  0  0  0  0
    5.8150    0.5862   -1.5321 C   0  0  0  0  0  0  0  0  0  0  0  0
    4.3907    0.5599   -1.1320 C   0  0  0  0  0  0  0  0  0  0  0  0
    3.4267    1.0115   -2.0132 C   0  0  0  0  0  0  0  0  0  0  0  0
    2.0648    1.0254   -1.6831 C   0  0  0  0  0  0  0  0  0  0  0  0
    1.1334    1.4778   -2.5775 O   0  0  0  0  0  0  0  0  0  0  0  0
   -0.2201    1.5234   -2.3194 C   0  0  0  0  0  0  0  0  0  0  0  0
   -0.8202    0.1816   -1.9916 C   0  0  0  0  0  0  0  0  0  0  0  0
   -2.2930    0.3159   -1.8035 C   0  0  0  0  0  0  0  0  0  0  0  0
   -2.8128    1.1928   -0.7629 C   0  0  0  0  0  0  0  0  0  0  0  0
   -2.4588    0.8872    0.6403 C   0  0  0  0  0  0  0  0  0  0  0  0
   -1.4328    1.3303    1.3724 N   0  0  0  0  0  0  0  0  0  0  0  0
   -1.5129    0.8025    2.5534 N   0  0  0  0  0  0  0  0  0  0  0  0
   -2.5776    0.0276    2.5845 N   0  0  0  0  0  0  0  0  0  0  0  0
   -3.1872    0.0509    1.4303 N   0  0  0  0  0  0  0  0  0  0  0  0
   -4.3789   -0.6239    0.9819 C   0  0  0  0  0  0  0  0  0  0  0  0
   -5.6452    0.1047    1.3251 C   0  0  0  0  0  0  0  0  0  0  0  0
   -6.7137   -0.3614    0.3507 C   0  0  0  0  0  0  0  0  0  0  0  0
   -6.4331   -1.7682   -0.1345 C   0  0  0  0  0  0  0  0  0  0  0  0
   -5.7865   -2.6132    0.9641 C   0  0  0  0  0  0  0  0  0  0  0  0
   -4.4084   -2.0827    1.3168 C   0  0  0  0  0  0  0  0  0  0  0  0
    1.7310    0.5654   -0.4326 C   0  0  0  0  0  0  0  0  0  0  0  0
    2.6984    0.1194    0.4327 C   0  0  0  0  0  0  0  0  0  0  0  0
    4.0421    0.1034    0.1119 C   0  0  0  0  0  0  0  0  0  0  0  0
    5.0152   -0.3934    1.0582 N   0  0  0  0  0  0  0  0  0  0  0  0
  1  2  2  0
  2  3  1  0
  3  4  1  0
  4  5  1  0
  5  6  2  0
  6  7  1  0
  7  8  1  0
  8  9  1  0
  9 10  1  0
 10 11  1  0
 11 12  1  0
 12 13  1  0
 13 14  2  0
 14 15  1  0
 15 16  2  0
 16 17  1  0
 17 18  1  0
 18 19  1  0
 19 20  1  0
 20 21  1  0
 21 22  1  0
 22 23  1  0
  7 24  2  0
 24 25  1  0
 25 26  2  0
 26 27  1  0
 27  2  1  0
 26  5  1  0
 17 13  1  0
 23 18  1  0
M  END
>  <zinc_id>  (1) 
ZINC000001552174

>  <smiles>  (1) 
O=C1CCc2cc(OCCCCc3nnnn3C3CCCCC3)ccc2N1

$$$$
