
     RDKit          3D

 19 19  0  0  0  0  0  0  0  0999 V2000
    6.5583    0.3721    1.5409 C   0  0  0  0  0  0  0  0  0  0  0  0
    6.2392    1.1259    0.4414 O   0  0  0  0  0  0  0  0  0  0  0  0
    5.0296    0.5792   -0.0411 C   0  0  0  0  0  0  0  0  0  0  0  0
    3.9478    0.6664    1.0018 C   0  0  0  0  0  0  0  0  0  0  0  0
    2.7167    0.0720    0.4205 C   0  0  0  0  0  0  0  0  0  0  0  0
    2.4727   -1.2974    0.5747 C   0  0  0  0  0  0  0  0  0  0  0  0
    1.3303   -1.8331    0.0318 C   0  0  0  0  0  0  0  0  0  0  0  0
    0.4268   -1.0480   -0.6577 C   0  0  0  0  0  0  0  0  0  0  0  0
   -0.7256   -1.6426   -1.1941 O   0  0  0  0  0  0  0  0  0  0  0  0
   -1.6788   -0.8509   -1.9082 C   0  0  0  0  0  0  0  0  0  0  0  0
   -2.0531    0.1923   -0.6262 C   0  0  1  0  0  0  0  0  0  0  0  0
   -3.0462    0.9747   -1.4655 O   0  0  0  0  0  0  0  0  0  0  0  0
   -3.1384   -0.8242    0.0138 C   0  0  0  0  0  0  0  0  0  0  0  0
   -4.0322   -0.2402    0.7927 N   0  0  0  0  0  0  0  0  0  0  0  0
   -5.0590    0.6049    0.7276 C   0  0  0  0  0  0  0  0  0  0  0  0
   -5.0074    2.0184    0.3544 C   0  0  0  0  0  0  0  0  0  0  0  0
   -6.4317   -0.0160    0.4736 C   0  0  0  0  0  0  0  0  0  0  0  0
    0.6555    0.3172   -0.8200 C   0  0  0  0  0  0  0  0  0  0  0  0
    1.7956    0.8293   -0.2728 C   0  0  0  0  0  0  0  0  0  0  0  0
  1  2  1  0
  2  3  1  0
  3  4  1  0
  4  5  1  0
  5  6  2  0
  6  7  1  0
  7  8  2  0
  8  9  1  0
  9 10  1  0
 10 11  1  0
 11 12  1  6
 11 13  1  0
 13 14  1  0
 14 15  1  0
 15 16  1  0
 15 17  1  0
  8 18  1  0
 18 19  2  0
 19  5  1  0
M  END
>  <zinc_id>  (1) 
ZINC000001530717

>  <smiles>  (1) 
COCCc1ccc(OC[C@@H](O)CNC(C)C)cc1

$$$$
