
     RDKit          3D

 22 21  0  0  0  0  0  0  0  0999 V2000
   -6.7899    1.9254    0.4235 C   0  0  0  0  0  0  0  0  0  0  0  0
   -5.5997    2.8567    0.4506 C   0  0  0  0  0  0  0  0  0  0  0  0
   -4.3805    2.2978   -0.1325 C   0  0  0  0  0  0  0  0  0  0  0  0
   -4.3756    1.0561   -0.6289 C   0  0  0  0  0  0  0  0  0  0  0  0
   -5.5969    0.2293   -0.5971 C   0  0  0  0  0  0  0  0  0  0  0  0
   -5.3473   -1.0267    0.1164 C   0  0  0  0  0  0  0  0  0  0  0  0
   -4.2045   -1.3807    0.6060 C   0  0  0  0  0  0  0  0  0  0  0  0
   -2.9821   -0.5521    0.5075 C   0  0  0  0  0  0  0  0  0  0  0  0
   -1.9622   -1.3383   -0.2343 C   0  0  0  0  0  0  0  0  0  0  0  0
   -0.7794   -1.6538    0.3456 C   0  0  0  0  0  0  0  0  0  0  0  0
   -0.6039   -1.1641    1.7284 C   0  0  0  0  0  0  0  0  0  0  0  0
    0.5905   -0.3199    1.8035 C   0  0  0  0  0  0  0  0  0  0  0  0
    1.3736   -0.1211    0.7730 C   0  0  0  0  0  0  0  0  0  0  0  0
    1.1860   -0.6901   -0.5632 C   0  0  0  0  0  0  0  0  0  0  0  0
    2.2496   -1.5377   -1.0768 C   0  0  0  0  0  0  0  0  0  0  0  0
    3.3582   -1.7879   -0.4594 C   0  0  0  0  0  0  0  0  0  0  0  0
    3.6563   -1.2160    0.8621 C   0  0  0  0  0  0  0  0  0  0  0  0
    4.9507   -0.4795    0.7984 C   0  0  0  0  0  0  0  0  0  0  0  0
    5.0047    0.6550   -0.1900 C   0  0  0  0  0  0  0  0  0  0  0  0
    6.3440    1.2586   -0.1133 C   0  0  0  0  0  0  0  0  0  0  0  0
    6.6301    2.0433    0.8042 O   0  0  0  0  0  0  0  0  0  0  0  0
    7.2784    0.9458   -1.0681 O   0  0  0  0  0  0  0  0  0  0  0  0
  1  2  1  0
  2  3  1  0
  3  4  2  0
  4  5  1  0
  5  6  1  0
  6  7  2  0
  7  8  1  0
  8  9  1  0
  9 10  2  0
 10 11  1  0
 11 12  1  0
 12 13  2  0
 13 14  1  0
 14 15  1  0
 15 16  2  0
 16 17  1  0
 17 18  1  0
 18 19  1  0
 19 20  1  0
 20 21  2  0
 20 22  1  0
M  END
>  <zinc_id>  (1) 
ZINC000004474603

>  <smiles>  (1) 
CC/C=C\C/C=C\C/C=C\C/C=C\C/C=C\CCCC(=O)O

$$$$
