
     RDKit          3D

 30 31  0  0  0  0  0  0  0  0999 V2000
   -5.2285    1.9792   -2.6672 C   0  0  0  0  0  0  0  0  0  0  0  0
   -5.3334    0.5115   -2.3900 C   0  0  0  0  0  0  0  0  0  0  0  0
   -6.6230    0.1790   -1.7362 C   0  0  0  0  0  0  0  0  0  0  0  0
   -6.9540    0.7248   -0.4791 C   0  0  0  0  0  0  0  0  0  0  0  0
   -6.1467    0.4235    1.0192 S   0  0  0  0  0  0  0  0  0  0  0  0
   -6.5268   -0.9925    1.4294 O   0  0  0  0  0  0  0  0  0  0  0  0
   -6.8729    1.3917    1.9983 O   0  0  0  0  0  0  0  0  0  0  0  0
   -4.5693    0.7972    1.1090 N   0  0  0  0  0  0  0  0  0  0  0  0
   -3.5838    0.0525    0.1879 C   0  0  1  0  0  0  0  0  0  0  0  0
   -2.3303    0.9561    0.7033 C   0  0  0  0  0  0  0  0  0  0  0  0
   -1.1017    0.6339    0.0959 C   0  0  0  0  0  0  0  0  0  0  0  0
   -0.6776    1.1939   -1.0940 C   0  0  0  0  0  0  0  0  0  0  0  0
    0.5585    0.8531   -1.6423 C   0  0  0  0  0  0  0  0  0  0  0  0
    1.3862   -0.0441   -1.0193 C   0  0  0  0  0  0  0  0  0  0  0  0
    2.6374   -0.3884   -1.5759 O   0  0  0  0  0  0  0  0  0  0  0  0
    3.4539   -1.3216   -0.8885 C   0  0  0  0  0  0  0  0  0  0  0  0
    3.7899   -0.7956    0.4940 C   0  0  0  0  0  0  0  0  0  0  0  0
    4.6527   -1.8352    1.1607 C   0  0  0  0  0  0  0  0  0  0  0  0
    5.9079   -2.0231    0.3807 C   0  0  0  0  0  0  0  0  0  0  0  0
    6.7270   -0.7824    0.3079 C   0  0  0  0  0  0  0  0  0  0  0  0
    7.1104   -0.3362    1.6755 C   0  0  0  0  0  0  0  0  0  0  0  0
    7.9423    0.9017    1.7337 C   0  0  0  0  0  0  0  0  0  0  0  0
    7.9295    1.6345    0.5049 N   0  0  0  0  0  0  0  0  0  0  0  0
    6.6152    1.6629   -0.1101 C   0  0  0  0  0  0  0  0  0  0  0  0
    6.2691    0.2790   -0.6179 C   0  0  0  0  0  0  0  0  0  0  0  0
    0.9825   -0.6128    0.1663 C   0  0  0  0  0  0  0  0  0  0  0  0
   -0.2418   -0.2617    0.6893 C   0  0  0  0  0  0  0  0  0  0  0  0
   -3.3720   -1.1979    1.0680 C   0  0  0  0  0  0  0  0  0  0  0  0
   -3.8011   -1.4261    2.1688 O   0  0  0  0  0  0  0  0  0  0  0  0
   -2.5996   -2.1569    0.5093 O   0  0  0  0  0  0  0  0  0  0  0  0
  1  2  1  0
  2  3  1  0
  3  4  1  0
  4  5  1  0
  5  6  2  0
  5  7  2  0
  5  8  1  0
  8  9  1  0
  9 10  1  1
 10 11  1  0
 11 12  2  0
 12 13  1  0
 13 14  2  0
 14 15  1  0
 15 16  1  0
 16 17  1  0
 17 18  1  0
 18 19  1  0
 19 20  1  0
 20 21  1  0
 21 22  1  0
 22 23  1  0
 23 24  1  0
 24 25  1  0
 14 26  1  0
 26 27  2  0
  9 28  1  0
 28 29  2  0
 28 30  1  0
 27 11  1  0
 25 20  1  0
M  END
>  <zinc_id>  (1) 
ZINC000003806104

>  <smiles>  (1) 
CCCCS(=O)(=O)N[C@@H](Cc1ccc(OCCCCC2CCNCC2)cc1)C(=O)O

$$$$
