
     RDKit          3D

 30 32  0  0  0  0  0  0  0  0999 V2000
    5.3734   -0.5887   -2.1174 C   0  0  0  0  0  0  0  0  0  0  0  0
    5.0257   -0.4466   -1.6374 C   0  0  0  0  0  0  0  0  0  0  0  0
    3.7108   -0.3107   -1.0157 C   0  0  0  0  0  0  0  0  0  0  0  0
    3.5748    0.0939    0.2086 C   0  0  0  0  0  0  0  0  0  0  0  0
    4.7063    0.4552    1.0831 C   0  0  0  0  0  0  0  0  0  0  0  0
    4.6198    0.8499    2.2515 O   0  0  0  0  0  0  0  0  0  0  0  0
    5.9943    0.3578    0.5924 O   0  0  0  0  0  0  0  0  0  0  0  0
    2.3010    0.2392    0.8785 N   0  0  0  0  0  0  0  0  0  0  0  0
    1.4570    1.0306    1.6438 C   0  0  0  0  0  0  0  0  0  0  0  0
    1.4008    2.1472    2.1219 O   0  0  0  0  0  0  0  0  0  0  0  0
    0.4074   -0.1248    1.7374 C   0  0  1  0  0  0  0  0  0  0  0  0
   -0.6920    0.3837    0.7578 N   0  0  0  0  0  0  0  0  0  0  0  0
   -1.5851   -0.6370    0.3387 C   0  0  0  0  0  0  0  0  0  0  0  0
   -1.4370   -1.8385    0.7632 O   0  0  0  0  0  0  0  0  0  0  0  0
   -2.7025   -0.4288   -0.5690 C   0  0  0  0  0  0  0  0  0  0  0  0
   -2.9065    0.7461   -1.0252 N   0  0  0  0  0  0  0  0  0  0  0  0
   -2.1673    1.8460   -0.7413 O   0  0  0  0  0  0  0  0  0  0  0  0
   -2.6133    2.8992    0.0885 C   0  0  0  0  0  0  0  0  0  0  0  0
   -1.6310    3.9904    0.2086 C   0  0  0  0  0  0  0  0  0  0  0  0
   -1.9207    4.9722    0.9366 O   0  0  0  0  0  0  0  0  0  0  0  0
   -0.3940    4.0300   -0.4214 O   0  0  0  0  0  0  0  0  0  0  0  0
   -3.6022   -1.5547   -0.9629 C   0  0  0  0  0  0  0  0  0  0  0  0
   -4.6682   -1.3768   -1.8149 C   0  0  0  0  0  0  0  0  0  0  0  0
   -5.3206   -2.9645   -1.9004 S   0  0  0  0  0  0  0  0  0  0  0  0
   -4.2086   -3.7363   -0.8615 C   0  0  0  0  0  0  0  0  0  0  0  0
   -4.2039   -5.1145   -0.5026 N   0  0  0  0  0  0  0  0  0  0  0  0
   -3.4155   -2.7614   -0.5118 N   0  0  0  0  0  0  0  0  0  0  0  0
    1.3811   -0.9769    0.7394 C   0  0  1  0  0  0  0  0  0  0  0  0
    0.9588   -0.5481   -1.0444 S   0  0  0  0  0  0  0  0  0  0  0  0
    2.5573   -0.6329   -1.8724 C   0  0  0  0  0  0  0  0  0  0  0  0
  1  2  2  0
  2  3  1  0
  3  4  2  0
  4  5  1  0
  5  6  2  0
  5  7  1  0
  4  8  1  0
  8  9  1  0
  9 10  2  0
  9 11  1  0
 11 12  1  6
 12 13  1  0
 13 14  2  0
 13 15  1  0
 15 16  2  0
 16 17  1  0
 17 18  1  0
 18 19  1  0
 19 20  2  0
 19 21  1  0
 15 22  1  0
 22 23  2  0
 23 24  1  0
 24 25  1  0
 25 26  1  0
 25 27  2  0
 11 28  1  0
 28 29  1  6
 29 30  1  0
 30  3  1  0
 28  8  1  0
 27 22  1  0
M  END
>  <zinc_id>  (1) 
ZINC000004468778

>  <smiles>  (1) 
C=CC1=C(C(=O)O)N2C(=O)[C@@H](NC(=O)/C(=N\OCC(=O)O)c3csc(N)n3)[C@H]2SC1

$$$$
