
     RDKit          3D

 21 22  0  0  0  0  0  0  0  0999 V2000
    4.8706   -0.0211   -0.9838 C   0  0  0  0  0  0  0  0  0  0  0  0
    5.3195    0.4301   -0.2372 C   0  0  0  0  0  0  0  0  0  0  0  0
    6.4165    1.4280   -0.6897 C   0  0  0  0  0  0  0  0  0  0  0  0
    5.9905   -0.6438    0.6590 C   0  0  0  0  0  0  0  0  0  0  0  0
    4.3501    1.1729    0.5567 N   0  0  0  0  0  0  0  0  0  0  0  0
    3.3531    0.4063    1.2029 C   0  0  0  0  0  0  0  0  0  0  0  0
    2.3994   -0.1022   -0.0448 C   0  0  2  0  0  0  0  0  0  0  0  0
    2.0003    1.3011   -0.4415 O   0  0  0  0  0  0  0  0  0  0  0  0
    1.1166   -0.3487    0.9244 C   0  0  0  0  0  0  0  0  0  0  0  0
    0.0323   -0.1806    0.0038 O   0  0  0  0  0  0  0  0  0  0  0  0
   -1.2770   -0.3304    0.4363 C   0  0  0  0  0  0  0  0  0  0  0  0
   -1.4774   -0.6504    1.7701 C   0  0  0  0  0  0  0  0  0  0  0  0
   -2.7504   -0.8127    2.2614 C   0  0  0  0  0  0  0  0  0  0  0  0
   -3.7975   -0.6530    1.4103 C   0  0  0  0  0  0  0  0  0  0  0  0
   -3.6168   -0.3355    0.0821 C   0  0  0  0  0  0  0  0  0  0  0  0
   -2.3243   -0.1674   -0.4269 C   0  0  0  0  0  0  0  0  0  0  0  0
   -2.1458    0.1780   -1.8543 C   0  0  0  0  0  0  0  0  0  0  0  0
   -3.2425   -0.3636   -2.6947 C   0  0  0  0  0  0  0  0  0  0  0  0
   -4.5945    0.2334   -2.2587 C   0  0  0  0  0  0  0  0  0  0  0  0
   -4.7402   -0.1637   -0.8339 C   0  0  0  0  0  0  0  0  0  0  0  0
   -5.8826   -0.3766   -0.3371 O   0  0  0  0  0  0  0  0  0  0  0  0
  1  2  1  0
  2  3  1  0
  2  4  1  0
  2  5  1  0
  5  6  1  0
  6  7  1  0
  7  8  1  6
  7  9  1  0
  9 10  1  0
 10 11  1  0
 11 12  2  0
 12 13  1  0
 13 14  2  0
 14 15  1  0
 15 16  2  0
 16 17  1  0
 17 18  1  0
 18 19  1  0
 19 20  1  0
 20 21  2  0
 16 11  1  0
 20 15  1  0
M  END
>  <zinc_id>  (1) 
ZINC000003830339

>  <smiles>  (1) 
CC(C)(C)NC[C@H](O)COc1cccc2c1CCCC2=O

$$$$
