
     RDKit          3D

 12 12  0  0  0  0  0  0  0  0999 V2000
   -3.2102   -0.5266    0.2308 O   0  0  0  0  0  0  0  0  0  0  0  0
   -3.0907    0.6274   -0.2287 C   0  0  0  0  0  0  0  0  0  0  0  0
   -3.7513    1.6597    0.4020 O   0  0  0  0  0  0  0  0  0  0  0  0
   -2.2707    0.9160   -1.4163 C   0  0  0  0  0  0  0  0  0  0  0  0
   -0.8162    0.9709   -0.9838 C   0  0  0  0  0  0  0  0  0  0  0  0
   -0.4898   -0.3962   -0.3971 C   0  0  0  0  0  0  0  0  0  0  0  0
    0.9377   -0.3280    0.0226 C   0  0  0  0  0  0  0  0  0  0  0  0
    1.2952    0.0840    1.2982 C   0  0  0  0  0  0  0  0  0  0  0  0
    2.6231    0.1388    1.6579 C   0  0  0  0  0  0  0  0  0  0  0  0
    3.6200   -0.2092    0.7737 C   0  0  0  0  0  0  0  0  0  0  0  0
    3.2395   -0.6152   -0.4877 C   0  0  0  0  0  0  0  0  0  0  0  0
    1.9132   -0.6782   -0.8716 C   0  0  0  0  0  0  0  0  0  0  0  0
  1  2  2  0
  2  3  1  0
  2  4  1  0
  4  5  1  0
  5  6  1  0
  6  7  1  0
  7  8  2  0
  8  9  1  0
  9 10  2  0
 10 11  1  0
 11 12  2  0
 12  7  1  0
M  END
>  <zinc_id>  (1) 
ZINC000000056568

>  <smiles>  (1) 
O=C(O)CCCc1ccccc1

$$$$
