
     RDKit          3D

 31 35  0  0  0  0  0  0  0  0999 V2000
   -4.2329    1.3123    1.1993 C   0  0  0  0  0  0  0  0  0  0  0  0
   -3.1456    1.3235    1.0554 C   0  0  0  0  0  0  0  0  0  0  0  0
   -2.6787    2.8001    1.3238 C   0  0  0  0  0  0  0  0  0  0  0  0
   -2.3695    0.5904    1.9248 O   0  0  0  0  0  0  0  0  0  0  0  0
   -2.8227   -0.7966    1.4478 C   0  0  2  0  0  0  0  0  0  0  0  0
   -1.2795   -1.3828    1.7973 C   0  0  0  0  0  0  0  0  0  0  0  0
   -0.5493   -0.3577    0.7985 C   0  0  1  0  0  0  0  0  0  0  0  0
    0.8427   -1.2052    0.4696 C   0  0  2  0  0  0  0  0  0  0  0  0
    1.4962   -0.9858    1.9047 C   0  0  0  0  0  0  0  0  0  0  0  0
    2.7919   -0.4286    1.9557 C   0  0  0  0  0  0  0  0  0  0  0  0
    3.4366    0.2036    0.8334 C   0  0  0  0  0  0  0  0  0  0  0  0
    4.4472    1.0109    1.0571 C   0  0  0  0  0  0  0  0  0  0  0  0
    5.1490    1.6825   -0.0253 C   0  0  0  0  0  0  0  0  0  0  0  0
    5.9882    2.5792    0.0897 O   0  0  0  0  0  0  0  0  0  0  0  0
    4.8307    1.2543   -1.4000 C   0  0  0  0  0  0  0  0  0  0  0  0
    3.4739    0.7082   -1.6070 C   0  0  0  0  0  0  0  0  0  0  0  0
    2.8919   -0.1192   -0.5252 C   0  0  1  0  0  0  0  0  0  0  0  0
    3.4051   -1.5392   -0.6961 C   0  0  0  0  0  0  0  0  0  0  0  0
    1.4818    0.0454   -0.2873 C   0  0  2  0  0  0  0  0  0  0  0  0
    1.2391    1.2262    0.4004 F   0  0  0  0  0  0  0  0  0  0  0  0
    0.5441    0.3571   -1.5616 C   0  0  1  0  0  0  0  0  0  0  0  0
    1.4025   -0.3125   -2.6123 O   0  0  0  0  0  0  0  0  0  0  0  0
   -0.4986   -0.8663   -1.5518 C   0  0  0  0  0  0  0  0  0  0  0  0
   -1.2968   -1.0545   -0.4289 C   0  0  1  0  0  0  0  0  0  0  0  0
   -1.3550   -2.5556   -0.1971 C   0  0  0  0  0  0  0  0  0  0  0  0
   -2.5493   -0.4225   -0.0949 C   0  0  1  0  0  0  0  0  0  0  0  0
   -3.6220   -1.0734   -0.8681 C   0  0  0  0  0  0  0  0  0  0  0  0
   -3.8977   -2.2656   -0.7901 O   0  0  0  0  0  0  0  0  0  0  0  0
   -4.3903   -0.2170   -1.7885 C   0  0  0  0  0  0  0  0  0  0  0  0
   -6.1509   -0.4449   -1.6842 Cl  0  0  0  0  0  0  0  0  0  0  0  0
   -2.5820    0.9337   -0.1394 O   0  0  0  0  0  0  0  0  0  0  0  0
  1  2  1  0
  2  3  1  0
  2  4  1  0
  4  5  1  0
  5  6  1  1
  7  6  1  1
  7  8  1  0
  8  9  1  1
  9 10  1  0
 10 11  1  0
 11 12  2  0
 12 13  1  0
 13 14  2  0
 13 15  1  0
 15 16  1  0
 16 17  1  0
 17 18  1  6
 17 19  1  0
 19 20  1  1
 19 21  1  0
 21 22  1  6
 21 23  1  0
 23 24  1  0
 24 25  1  1
 24 26  1  0
 26 27  1  6
 27 28  2  0
 27 29  1  0
 29 30  1  0
 26 31  1  0
 31  2  1  0
 26  5  1  0
 24  7  1  0
 19  8  1  0
 17 11  1  0
M  END
>  <zinc_id>  (1) 
ZINC000004213474

>  <smiles>  (1) 
CC1(C)O[C@@H]2C[C@H]3[C@@H]4CCC5=CC(=O)CC[C@]5(C)[C@@]4(F)[C@@H](O)C[C@]3(C)[C@]2(C(=O)CCl)O1

$$$$
