
     RDKit          3D

 10 10  0  0  0  0  0  0  0  0999 V2000
   -0.5655   -1.2943    1.7716 C   0  0  0  0  0  0  0  0  0  0  0  0
   -1.1882   -1.3042    0.6233 C   0  0  0  0  0  0  0  0  0  0  0  0
   -0.6521   -0.3915   -0.4580 C   0  0  2  0  0  0  0  0  0  0  0  0
   -1.4882   -0.5360   -1.6997 C   0  0  0  0  0  0  0  0  0  0  0  0
    0.7622   -0.8130   -0.7686 C   0  0  0  0  0  0  0  0  0  0  0  0
    1.6123    0.1819   -0.0986 C   0  0  0  0  0  0  0  0  0  0  0  0
    2.7939    0.0482    0.3059 O   0  0  0  0  0  0  0  0  0  0  0  0
    0.8308    1.3856    0.0214 N   0  0  0  0  0  0  0  0  0  0  0  0
   -0.5448    1.0191    0.0009 C   0  0  0  0  0  0  0  0  0  0  0  0
   -1.5603    1.7042    0.3018 O   0  0  0  0  0  0  0  0  0  0  0  0
  1  2  1  0
  2  3  1  0
  3  4  1  6
  3  5  1  0
  5  6  1  0
  6  7  2  0
  6  8  1  0
  8  9  1  0
  9 10  2  0
  9  3  1  0
M  END
>  <zinc_id>  (1) 
ZINC000001530806

>  <smiles>  (1) 
CC[C@]1(C)CC(=O)NC1=O

$$$$
