
     RDKit          3D

 27 29  0  0  0  0  0  0  0  0999 V2000
   -4.3281    0.2108    1.8550 C   0  0  0  0  0  0  0  0  0  0  0  0
   -3.0871   -0.1348    1.5341 O   0  0  0  0  0  0  0  0  0  0  0  0
   -2.5842   -1.3955    1.3296 C   0  0  0  0  0  0  0  0  0  0  0  0
   -3.3394   -2.3623    1.4464 O   0  0  0  0  0  0  0  0  0  0  0  0
   -1.1532   -1.4478    0.9830 C   0  0  0  0  0  0  0  0  0  0  0  0
   -0.7170   -2.6376    0.8002 C   0  0  0  0  0  0  0  0  0  0  0  0
   -1.6780   -3.8396    0.9469 C   0  0  0  0  0  0  0  0  0  0  0  0
    0.6250   -2.9520    0.4992 N   0  0  0  0  0  0  0  0  0  0  0  0
    1.5009   -1.8585    0.4049 C   0  0  0  0  0  0  0  0  0  0  0  0
    2.9496   -2.1219    0.0927 C   0  0  0  0  0  0  0  0  0  0  0  0
    1.1150   -0.6110    0.5769 C   0  0  0  0  0  0  0  0  0  0  0  0
    2.1416    0.4305    0.4576 C   0  0  0  0  0  0  0  0  0  0  0  0
    1.8373    1.6062    0.6196 O   0  0  0  0  0  0  0  0  0  0  0  0
    3.4305    0.0976    0.1678 O   0  0  0  0  0  0  0  0  0  0  0  0
    4.4672    1.0742    0.0409 C   0  0  0  0  0  0  0  0  0  0  0  0
    5.7948    0.4666   -0.2803 C   0  0  0  0  0  0  0  0  0  0  0  0
    4.5955    1.8111    1.3563 C   0  0  0  0  0  0  0  0  0  0  0  0
   -0.3297   -0.2055    0.8347 C   0  0  1  0  0  0  0  0  0  0  0  0
   -0.7184    0.2440   -0.6720 C   0  0  0  0  0  0  0  0  0  0  0  0
   -0.6227   -0.5312   -1.7024 C   0  0  0  0  0  0  0  0  0  0  0  0
   -0.9340   -0.1106   -2.9797 C   0  0  0  0  0  0  0  0  0  0  0  0
   -1.3584    1.1884   -3.1206 C   0  0  0  0  0  0  0  0  0  0  0  0
   -1.4698    2.0362   -2.0349 C   0  0  0  0  0  0  0  0  0  0  0  0
   -1.8524    3.2960   -1.8541 N   0  0  0  0  0  0  0  0  0  0  0  0
   -1.7845    3.6124   -0.6013 O   0  0  0  0  0  0  0  0  0  0  0  0
   -1.3629    2.5877    0.0622 N   0  0  0  0  0  0  0  0  0  0  0  0
   -1.1376    1.5469   -0.7624 C   0  0  0  0  0  0  0  0  0  0  0  0
  1  2  1  0
  2  3  1  0
  3  4  2  0
  3  5  1  0
  5  6  2  0
  6  7  1  0
  6  8  1  0
  8  9  1  0
  9 10  1  0
  9 11  2  0
 11 12  1  0
 12 13  2  0
 12 14  1  0
 14 15  1  0
 15 16  1  0
 15 17  1  0
 11 18  1  0
 18 19  1  6
 19 20  2  0
 20 21  1  0
 21 22  2  0
 22 23  1  0
 23 24  2  0
 24 25  1  0
 25 26  1  0
 26 27  2  0
 18  5  1  0
 27 19  1  0
 27 23  1  0
M  END
>  <zinc_id>  (1) 
ZINC000000607939

>  <smiles>  (1) 
COC(=O)C1=C(C)NC(C)=C(C(=O)OC(C)C)[C@H]1c1cccc2nonc12

$$$$
