
     RDKit          3D

 13 13  0  0  0  0  0  0  0  0999 V2000
   -1.3167   -1.3615    0.1844 N   0  0  0  0  0  0  0  0  0  0  0  0
   -1.7821    0.0456    0.6454 C   0  0  1  0  0  0  0  0  0  0  0  0
   -0.9772    0.8357   -0.5289 C   0  0  0  0  0  0  0  0  0  0  0  0
    0.4164    0.4413   -0.2459 C   0  0  0  0  0  0  0  0  0  0  0  0
    1.1224    1.2349    0.6403 C   0  0  0  0  0  0  0  0  0  0  0  0
    2.4393    0.8923    0.9169 C   0  0  0  0  0  0  0  0  0  0  0  0
    3.0383   -0.1942    0.3400 C   0  0  0  0  0  0  0  0  0  0  0  0
    4.3459   -0.4878    0.6498 O   0  0  0  0  0  0  0  0  0  0  0  0
    2.3024   -0.9565   -0.5347 C   0  0  0  0  0  0  0  0  0  0  0  0
    0.9810   -0.6495   -0.8400 C   0  0  0  0  0  0  0  0  0  0  0  0
   -3.1559    0.0570   -0.0841 C   0  0  0  0  0  0  0  0  0  0  0  0
   -3.7910    1.0957    0.1002 O   0  0  0  0  0  0  0  0  0  0  0  0
   -3.6228   -0.9531   -0.8439 O   0  0  0  0  0  0  0  0  0  0  0  0
  2  1  1  6
  2  3  1  0
  3  4  1  0
  4  5  2  0
  5  6  1  0
  6  7  2  0
  7  8  1  0
  7  9  1  0
  9 10  2  0
  2 11  1  0
 11 12  2  0
 11 13  1  0
 10  4  1  0
M  END
>  <zinc_id>  (1) 
ZINC000000266964

>  <smiles>  (1) 
N[C@@H](Cc1ccc(O)cc1)C(=O)O

$$$$
