
     RDKit          3D

 10  9  0  0  0  0  0  0  0  0999 V2000
   -3.4189   -0.5665    0.7969 C   0  0  0  0  0  0  0  0  0  0  0  0
   -2.4202    0.0716   -0.2118 C   0  0  1  0  0  0  0  0  0  0  0  0
   -2.2536    1.8140    0.5388 S   0  0  0  0  0  0  0  0  0  0  0  0
   -1.1148   -0.4691    0.1940 C   0  0  0  0  0  0  0  0  0  0  0  0
   -1.0848   -1.6126    0.8257 O   0  0  0  0  0  0  0  0  0  0  0  0
    0.1698    0.0718   -0.0072 N   0  0  0  0  0  0  0  0  0  0  0  0
    1.3270   -0.6066    0.4625 C   0  0  0  0  0  0  0  0  0  0  0  0
    2.5247    0.1933    0.1537 C   0  0  0  0  0  0  0  0  0  0  0  0
    3.3037   -0.2684   -0.8163 O   0  0  0  0  0  0  0  0  0  0  0  0
    2.9671    1.3725    0.7712 O   0  0  0  0  0  0  0  0  0  0  0  0
  2  1  1  1
  2  3  1  0
  2  4  1  0
  4  5  2  0
  4  6  1  0
  6  7  1  0
  7  8  1  0
  8  9  2  0
  8 10  1  0
M  END
>  <zinc_id>  (1) 
ZINC000003831551

>  <smiles>  (1) 
C[C@@H](S)C(=O)NCC(=O)O

$$$$
