
     RDKit          3D

 26 28  0  0  0  0  0  0  0  0999 V2000
   -6.1044   -1.4772    0.8422 Cl  0  0  0  0  0  0  0  0  0  0  0  0
   -4.7796   -0.4277    0.2498 C   0  0  0  0  0  0  0  0  0  0  0  0
   -4.1072   -0.6563   -0.8407 C   0  0  0  0  0  0  0  0  0  0  0  0
   -3.0405    0.0905   -1.3073 C   0  0  0  0  0  0  0  0  0  0  0  0
   -2.6635    1.2204   -0.5247 C   0  0  0  0  0  0  0  0  0  0  0  0
   -1.6089    2.1215   -1.1008 C   0  0  0  0  0  0  0  0  0  0  0  0
   -0.4472    1.3870   -0.9651 O   0  0  0  0  0  0  0  0  0  0  0  0
   -0.0843    0.1074   -1.1920 N   0  0  0  0  0  0  0  0  0  0  0  0
    0.9733   -0.3507   -0.3999 C   0  0  0  0  0  0  0  0  0  0  0  0
    1.5039   -1.5705   -0.4030 C   0  0  0  0  0  0  0  0  0  0  0  0
    1.5417   -2.8869   -0.3171 N   0  0  0  0  0  0  0  0  0  0  0  0
    1.8330   -3.7366    0.7694 C   0  0  0  0  0  0  0  0  0  0  0  0
    1.8594   -5.0327    0.3395 C   0  0  0  0  0  0  0  0  0  0  0  0
    1.5705   -5.0118   -1.0010 N   0  0  0  0  0  0  0  0  0  0  0  0
    1.3881   -3.7493   -1.3823 C   0  0  0  0  0  0  0  0  0  0  0  0
    1.7209    0.8664    0.1103 C   0  0  0  0  0  0  0  0  0  0  0  0
    1.6560    1.9598   -0.8036 C   0  0  0  0  0  0  0  0  0  0  0  0
    2.5904    2.9396   -0.5614 C   0  0  0  0  0  0  0  0  0  0  0  0
    3.5094    2.9009    0.4531 C   0  0  0  0  0  0  0  0  0  0  0  0
    4.7046    4.1345    0.6906 Cl  0  0  0  0  0  0  0  0  0  0  0  0
    3.5293    1.7909    1.3254 C   0  0  0  0  0  0  0  0  0  0  0  0
    2.5971    0.8021    1.0949 C   0  0  0  0  0  0  0  0  0  0  0  0
    2.4767   -0.5211    2.2760 Cl  0  0  0  0  0  0  0  0  0  0  0  0
   -3.3714    1.5136    0.6345 C   0  0  0  0  0  0  0  0  0  0  0  0
   -2.8258    2.8916    1.5289 Cl  0  0  0  0  0  0  0  0  0  0  0  0
   -4.4215    0.6947    1.0392 C   0  0  0  0  0  0  0  0  0  0  0  0
  1  2  1  0
  2  3  2  0
  3  4  1  0
  4  5  2  0
  5  6  1  0
  6  7  1  0
  7  8  1  0
  8  9  2  0
  9 10  1  0
 10 11  1  0
 11 12  1  0
 12 13  2  0
 13 14  1  0
 14 15  2  0
  9 16  1  0
 16 17  2  0
 17 18  1  0
 18 19  2  0
 19 20  1  0
 19 21  1  0
 21 22  2  0
 22 23  1  0
  5 24  1  0
 24 25  1  0
 24 26  2  0
 26  2  1  0
 15 11  1  0
 22 16  1  0
M  END
>  <zinc_id>  (1) 
ZINC000003873296

>  <smiles>  (1) 
Clc1ccc(CO/N=C(/Cn2ccnc2)c2ccc(Cl)cc2Cl)c(Cl)c1

$$$$
