
     RDKit          3D

  9  8  0  0  0  0  0  0  0  0999 V2000
   -2.1798    0.8840   -0.8116 C   0  0  0  0  0  0  0  0  0  0  0  0
   -1.7360   -0.3700   -0.3666 C   0  0  0  0  0  0  0  0  0  0  0  0
   -2.7675   -1.3763    0.0437 C   0  0  0  0  0  0  0  0  0  0  0  0
   -0.3483   -0.7708   -0.2730 C   0  0  0  0  0  0  0  0  0  0  0  0
    0.3208    0.2801    0.7863 C   0  0  2  0  0  0  0  0  0  0  0  0
    0.0562    1.5723   -0.0607 N   0  0  0  0  0  0  0  0  0  0  0  0
    1.8465    0.0486    0.2977 C   0  0  0  0  0  0  0  0  0  0  0  0
    2.3662    0.8050   -0.4901 O   0  0  0  0  0  0  0  0  0  0  0  0
    2.4418   -1.0729    0.8743 O   0  0  0  0  0  0  0  0  0  0  0  0
  1  2  1  0
  2  3  1  0
  2  4  1  0
  4  5  1  0
  5  6  1  6
  5  7  1  0
  7  8  2  0
  7  9  1  0
M  END
>  <zinc_id>  (1) 
ZINC000003645145

>  <smiles>  (1) 
CC(C)C[C@H](N)C(=O)O

$$$$
