
     RDKit          3D

 51 57  0  0  0  0  0  0  0  0999 V2000
   13.2482    0.6993   -0.7618 C   0  0  0  0  0  0  0  0  0  0  0  0
   13.0963    0.2930   -1.4788 C   0  0  0  0  0  0  0  0  0  0  0  0
   12.0170   -0.9052   -1.5692 C   0  0  1  0  0  0  0  0  0  0  0  0
   12.8277   -1.8614   -0.4177 C   0  0  2  0  0  0  0  0  0  0  0  0
   14.1849   -1.9360   -1.3212 C   0  0  0  0  0  0  0  0  0  0  0  0
   12.2689   -3.1393   -0.9723 O   0  0  0  0  0  0  0  0  0  0  0  0
   10.9992   -0.3244   -0.5622 N   0  0  0  0  0  0  0  0  0  0  0  0
   11.1362   -0.0088    0.6561 N   0  0  0  0  0  0  0  0  0  0  0  0
    9.9792    0.4558    1.1225 C   0  0  0  0  0  0  0  0  0  0  0  0
    9.0871    0.4204    0.1297 N   0  0  0  0  0  0  0  0  0  0  0  0
    7.7058    0.8316    0.1938 C   0  0  0  0  0  0  0  0  0  0  0  0
    6.8838    0.4582   -0.8178 C   0  0  0  0  0  0  0  0  0  0  0  0
    5.5751    0.8059   -0.8278 C   0  0  0  0  0  0  0  0  0  0  0  0
    5.0261    1.5544    0.1916 C   0  0  0  0  0  0  0  0  0  0  0  0
    3.6528    1.9182    0.1789 N   0  0  0  0  0  0  0  0  0  0  0  0
    3.1102    2.6873    1.2574 C   0  0  0  0  0  0  0  0  0  0  0  0
    1.6945    2.2387    1.6206 C   0  0  0  0  0  0  0  0  0  0  0  0
    0.9431    1.9489    0.4383 N   0  0  0  0  0  0  0  0  0  0  0  0
   -0.3475    1.3834    0.5215 C   0  0  0  0  0  0  0  0  0  0  0  0
   -0.8881    1.1109    1.7379 C   0  0  0  0  0  0  0  0  0  0  0  0
   -2.1205    0.5705    1.8378 C   0  0  0  0  0  0  0  0  0  0  0  0
   -2.8840    0.2709    0.7394 C   0  0  0  0  0  0  0  0  0  0  0  0
   -4.1231   -0.2692    0.7357 O   0  0  0  0  0  0  0  0  0  0  0  0
   -5.0916   -0.6689   -0.0080 C   0  0  0  0  0  0  0  0  0  0  0  0
   -5.7828    0.4038   -0.9929 C   0  0  2  0  0  0  0  0  0  0  0  0
   -6.2596    1.4173    0.1585 C   0  0  0  0  0  0  0  0  0  0  0  0
   -7.1054    0.5986    0.7859 O   0  0  0  0  0  0  0  0  0  0  0  0
   -7.7493   -0.3544    0.1606 C   0  0  1  0  0  0  0  0  0  0  0  0
   -7.4734   -1.7746    0.2188 C   0  0  0  0  0  0  0  0  0  0  0  0
   -8.1784   -2.7321   -0.5249 N   0  0  0  0  0  0  0  0  0  0  0  0
   -8.0744   -3.2501   -1.7775 C   0  0  0  0  0  0  0  0  0  0  0  0
   -8.9940   -4.2143   -1.9420 N   0  0  0  0  0  0  0  0  0  0  0  0
   -9.6716   -4.2989   -0.7945 C   0  0  0  0  0  0  0  0  0  0  0  0
   -9.1578   -3.4012    0.0252 N   0  0  0  0  0  0  0  0  0  0  0  0
   -9.1534   -0.0926    0.5405 C   0  0  0  0  0  0  0  0  0  0  0  0
   -9.9506   -0.8893    1.3056 C   0  0  0  0  0  0  0  0  0  0  0  0
  -11.2285   -0.6138    1.7119 C   0  0  0  0  0  0  0  0  0  0  0  0
  -11.7703    0.5734    1.3186 C   0  0  0  0  0  0  0  0  0  0  0  0
  -13.0336    0.9196    1.6814 F   0  0  0  0  0  0  0  0  0  0  0  0
  -11.0762    1.4324    0.5649 C   0  0  0  0  0  0  0  0  0  0  0  0
   -9.7860    1.0916    0.1876 C   0  0  0  0  0  0  0  0  0  0  0  0
   -9.1602    2.0235   -0.5898 F   0  0  0  0  0  0  0  0  0  0  0  0
   -7.2975   -0.1132   -1.2053 C   0  0  0  0  0  0  0  0  0  0  0  0
   -2.3252    0.5516   -0.4881 C   0  0  0  0  0  0  0  0  0  0  0  0
   -1.0858    1.0967   -0.6423 C   0  0  0  0  0  0  0  0  0  0  0  0
    1.5136    2.2389   -0.8456 C   0  0  0  0  0  0  0  0  0  0  0  0
    2.8356    1.5029   -0.9242 C   0  0  0  0  0  0  0  0  0  0  0  0
    5.8717    1.9341    1.2249 C   0  0  0  0  0  0  0  0  0  0  0  0
    7.1978    1.5703    1.2155 C   0  0  0  0  0  0  0  0  0  0  0  0
    9.7283   -0.0727   -0.9382 C   0  0  0  0  0  0  0  0  0  0  0  0
    9.1854   -0.2447   -2.0590 O   0  0  0  0  0  0  0  0  0  0  0  0
  1  2  1  0
  3  2  1  1
  3  4  1  0
  4  5  1  6
  4  6  1  0
  3  7  1  0
  7  8  1  0
  8  9  2  0
  9 10  1  0
 10 11  1  0
 11 12  2  0
 12 13  1  0
 13 14  2  0
 14 15  1  0
 15 16  1  0
 16 17  1  0
 17 18  1  0
 18 19  1  0
 19 20  2  0
 20 21  1  0
 21 22  2  0
 22 23  1  0
 23 24  1  0
 25 24  1  1
 25 26  1  0
 26 27  1  0
 27 28  1  0
 28 29  1  1
 29 30  1  0
 30 31  1  0
 31 32  2  0
 32 33  1  0
 33 34  2  0
 28 35  1  0
 35 36  2  0
 36 37  1  0
 37 38  2  0
 38 39  1  0
 38 40  1  0
 40 41  2  0
 41 42  1  0
 28 43  1  0
 22 44  1  0
 44 45  2  0
 18 46  1  0
 46 47  1  0
 14 48  1  0
 48 49  2  0
 10 50  1  0
 50 51  2  0
 50  7  1  0
 49 11  1  0
 47 15  1  0
 45 19  1  0
 43 25  1  0
 34 30  1  0
 41 35  1  0
M  END
>  <zinc_id>  (1) 
ZINC000003938482

>  <smiles>  (1) 
CC[C@@H]([C@H](C)O)n1ncn(-c2ccc(N3CCN(c4ccc(OC[C@@H]5CO[C@@](Cn6cncn6)(c6ccc(F)cc6F)C5)cc4)CC3)cc2)c1=O

$$$$
