
     RDKit          3D

 44 49  0  0  0  0  0  0  0  0999 V2000
   -3.4256   -1.7248    3.3257 C   0  0  0  0  0  0  0  0  0  0  0  0
   -2.4988   -1.7800    2.3908 O   0  0  0  0  0  0  0  0  0  0  0  0
   -1.6142   -2.7621    2.2895 C   0  0  0  0  0  0  0  0  0  0  0  0
   -1.6513   -3.7050    3.1310 O   0  0  0  0  0  0  0  0  0  0  0  0
   -0.4805   -2.9538    1.2521 C   0  0  2  0  0  0  0  0  0  0  0  0
    0.3948   -1.5486    1.5124 C   0  0  1  0  0  0  0  0  0  0  0  0
    1.1765   -2.1833    2.6083 O   0  0  0  0  0  0  0  0  0  0  0  0
    2.0560   -1.2672    3.1045 C   0  0  0  0  0  0  0  0  0  0  0  0
    1.5471   -1.9934    0.3473 C   0  0  2  0  0  0  0  0  0  0  0  0
    2.4757   -0.8281    0.6336 O   0  0  0  0  0  0  0  0  0  0  0  0
    3.5960   -0.9041   -0.2126 C   0  0  0  0  0  0  0  0  0  0  0  0
    3.7520   -1.8232   -1.0609 O   0  0  0  0  0  0  0  0  0  0  0  0
    4.6722    0.1044   -0.1558 C   0  0  0  0  0  0  0  0  0  0  0  0
    4.6447    1.1680    0.7187 C   0  0  0  0  0  0  0  0  0  0  0  0
    5.6815    2.1078    0.7478 C   0  0  0  0  0  0  0  0  0  0  0  0
    5.6614    3.1821    1.6257 O   0  0  0  0  0  0  0  0  0  0  0  0
    4.5976    3.3788    2.5293 C   0  0  0  0  0  0  0  0  0  0  0  0
    6.7468    1.9907   -0.0929 C   0  0  0  0  0  0  0  0  0  0  0  0
    7.8104    2.9029   -0.1047 O   0  0  0  0  0  0  0  0  0  0  0  0
    7.8617    4.0432   -0.8916 C   0  0  0  0  0  0  0  0  0  0  0  0
    6.7976    0.9447   -0.9695 C   0  0  0  0  0  0  0  0  0  0  0  0
    7.8799    0.8183   -1.8296 O   0  0  0  0  0  0  0  0  0  0  0  0
    7.9925   -0.2359   -2.7562 C   0  0  0  0  0  0  0  0  0  0  0  0
    5.7593    0.0134   -0.9908 C   0  0  0  0  0  0  0  0  0  0  0  0
    0.6566   -1.2059   -0.7937 C   0  0  0  0  0  0  0  0  0  0  0  0
   -0.1254   -2.5602   -1.1575 C   0  0  2  0  0  0  0  0  0  0  0  0
   -0.9300   -1.9738   -2.3998 C   0  0  0  0  0  0  0  0  0  0  0  0
   -2.1558   -1.4730   -2.0807 N   0  0  0  0  0  0  0  0  0  0  0  0
   -3.2818   -1.7731   -2.5481 C   0  0  0  0  0  0  0  0  0  0  0  0
   -4.6275   -1.6185   -2.0171 C   0  0  0  0  0  0  0  0  0  0  0  0
   -4.4351   -0.3131   -1.2800 C   0  0  0  0  0  0  0  0  0  0  0  0
   -5.4633    0.4947   -0.8373 C   0  0  0  0  0  0  0  0  0  0  0  0
   -6.8390    0.4479   -0.8814 C   0  0  0  0  0  0  0  0  0  0  0  0
   -7.6420    1.4238   -0.3409 C   0  0  0  0  0  0  0  0  0  0  0  0
   -7.0910    2.5167    0.2830 C   0  0  0  0  0  0  0  0  0  0  0  0
   -7.8797    3.5317    0.8458 O   0  0  0  0  0  0  0  0  0  0  0  0
   -9.2662    3.4684    0.7922 C   0  0  0  0  0  0  0  0  0  0  0  0
   -5.7171    2.5642    0.3275 C   0  0  0  0  0  0  0  0  0  0  0  0
   -4.9052    1.5849   -0.2148 C   0  0  0  0  0  0  0  0  0  0  0  0
   -3.5690    1.3834   -0.3113 N   0  0  0  0  0  0  0  0  0  0  0  0
   -3.3197    0.2458   -0.9502 C   0  0  0  0  0  0  0  0  0  0  0  0
   -1.8349   -0.2200   -1.1965 C   0  0  1  0  0  0  0  0  0  0  0  0
   -1.6097   -0.9677    0.2131 C   0  0  0  0  0  0  0  0  0  0  0  0
   -1.3975   -2.5010   -0.0576 C   0  0  2  0  0  0  0  0  0  0  0  0
  1  2  1  0
  2  3  1  0
  3  4  2  0
  5  3  1  1
  5  6  1  0
  6  7  1  1
  7  8  1  0
  6  9  1  0
  9 10  1  1
 10 11  1  0
 11 12  2  0
 11 13  1  0
 13 14  2  0
 14 15  1  0
 15 16  1  0
 16 17  1  0
 15 18  2  0
 18 19  1  0
 19 20  1  0
 18 21  1  0
 21 22  1  0
 22 23  1  0
 21 24  2  0
  9 25  1  0
 26 25  1  1
 26 27  1  0
 27 28  1  0
 28 29  1  0
 29 30  1  0
 30 31  1  0
 31 32  1  0
 32 33  2  0
 33 34  1  0
 34 35  2  0
 35 36  1  0
 36 37  1  0
 35 38  1  0
 38 39  2  0
 39 40  1  0
 40 41  1  0
 41 42  1  0
 42 43  1  1
 44 43  1  1
 44  5  1  0
 24 13  1  0
 44 26  1  0
 42 28  1  0
 41 31  2  0
 39 32  1  0
M  END
>  <zinc_id>  (1) 
ZINC000003938746

>  <smiles>  (1) 
COC(=O)[C@H]1[C@H]2C[C@@H]3c4[nH]c5cc(OC)ccc5c4CCN3C[C@H]2C[C@@H](OC(=O)c2cc(OC)c(OC)c(OC)c2)[C@@H]1OC

$$$$
