
     RDKit          3D

 24 26  0  0  0  0  0  0  0  0999 V2000
   -7.1043    3.4820    0.3077 C   0  0  0  0  0  0  0  0  0  0  0  0
   -6.4080    2.6437   -0.0613 O   0  0  0  0  0  0  0  0  0  0  0  0
   -5.1933    2.2574    0.5014 C   0  0  0  0  0  0  0  0  0  0  0  0
   -4.6493    2.8503    1.6120 C   0  0  0  0  0  0  0  0  0  0  0  0
   -3.4503    2.4404    2.1354 C   0  0  0  0  0  0  0  0  0  0  0  0
   -2.7746    1.3990    1.5219 C   0  0  0  0  0  0  0  0  0  0  0  0
   -1.6186    0.7518    1.7439 N   0  0  0  0  0  0  0  0  0  0  0  0
   -1.4159   -0.2227    0.8175 C   0  0  0  0  0  0  0  0  0  0  0  0
    0.0144   -1.3156    0.7619 S   0  0  0  0  0  0  0  0  0  0  0  0
   -0.4616   -2.4531   -0.1691 O   0  0  0  0  0  0  0  0  0  0  0  0
    1.1521   -0.3707   -0.3109 C   0  0  0  0  0  0  0  0  0  0  0  0
    2.4146   -1.0815   -0.5039 C   0  0  0  0  0  0  0  0  0  0  0  0
    2.7380   -2.2759    0.0205 N   0  0  0  0  0  0  0  0  0  0  0  0
    3.9044   -2.8888   -0.1827 C   0  0  0  0  0  0  0  0  0  0  0  0
    4.8511   -2.2680   -0.9815 C   0  0  0  0  0  0  0  0  0  0  0  0
    6.1576   -2.9402   -1.2172 C   0  0  0  0  0  0  0  0  0  0  0  0
    4.5878   -1.0380   -1.5546 C   0  0  0  0  0  0  0  0  0  0  0  0
    5.5559   -0.4624   -2.3380 O   0  0  0  0  0  0  0  0  0  0  0  0
    5.5644   -0.7427   -3.7225 C   0  0  0  0  0  0  0  0  0  0  0  0
    3.3610   -0.4692   -1.2979 C   0  0  0  0  0  0  0  0  0  0  0  0
    3.0886    0.8654   -1.9259 C   0  0  0  0  0  0  0  0  0  0  0  0
   -2.4741   -0.1646    0.0153 N   0  0  0  0  0  0  0  0  0  0  0  0
   -3.3186    0.8010    0.4054 C   0  0  0  0  0  0  0  0  0  0  0  0
   -4.5213    1.2027   -0.1302 C   0  0  0  0  0  0  0  0  0  0  0  0
  1  2  1  0
  2  3  1  0
  3  4  2  0
  4  5  1  0
  5  6  2  0
  6  7  1  0
  7  8  2  0
  8  9  1  0
  9 10  2  0
  9 11  1  6
 11 12  1  0
 12 13  2  0
 13 14  1  0
 14 15  2  0
 15 16  1  0
 15 17  1  0
 17 18  1  0
 18 19  1  0
 17 20  2  0
 20 21  1  0
  8 22  1  0
 22 23  1  0
 23 24  2  0
 24  3  1  0
 23  6  1  0
 20 12  1  0
M  END
>  <zinc_id>  (1) 
ZINC000004693575

>  <smiles>  (1) 
COc1ccc2nc([S@@](=O)Cc3ncc(C)c(OC)c3C)[nH]c2c1

$$$$
