
     RDKit          2D

 30 33  0  0  0  0  0  0  0  0999 V2000
   -4.4641    1.7840    0.0000 C   0  0  0  0  0  0  0  0  0  0  0  0
   -5.5234    0.7219    0.0000 C   0  0  0  0  0  0  0  0  0  0  0  0
   -5.1333   -0.7264    0.0000 C   0  0  0  0  0  0  0  0  0  0  0  0
   -3.6839   -1.1128    0.0000 C   0  0  0  0  0  0  0  0  0  0  0  0
   -2.6246   -0.0508    0.0000 C   0  0  0  0  0  0  0  0  0  0  0  0
   -1.1753   -0.4372    0.0000 C   0  0  0  0  0  0  0  0  0  0  0  0
   -0.7852   -1.8856    0.0000 C   0  0  0  0  0  0  0  0  0  0  0  0
    0.6642   -2.2719    0.0000 C   0  0  0  0  0  0  0  0  0  0  0  0
    1.7235   -1.2099    0.0000 C   0  0  0  0  0  0  0  0  0  0  0  0
    1.3334    0.2385    0.0000 C   0  0  0  0  0  0  0  0  0  0  0  0
    2.8153    0.0057    0.0000 C   0  0  0  0  0  0  0  0  0  0  0  0
   -0.1160    0.6248    0.0000 C   0  0  0  0  0  0  0  0  0  0  0  0
   -0.1964    2.1227    0.0000 C   0  0  0  0  0  0  0  0  0  0  0  0
    1.2033    2.6620    0.0000 C   0  0  0  0  0  0  0  0  0  0  0  0
    2.1488    1.4975    0.0000 C   0  0  0  0  0  0  0  0  0  0  0  0
    3.6466    1.5779    0.0000 C   0  0  0  0  0  0  0  0  0  0  0  0
    4.3259    2.9153    0.0000 C   0  0  0  0  0  0  0  0  0  0  0  0
    4.4652    0.3210    0.0000 C   0  0  0  0  0  0  0  0  0  0  0  0
    5.9630    0.4014    0.0000 C   0  0  0  0  0  0  0  0  0  0  0  0
    6.7816   -0.8556    0.0000 C   0  0  0  0  0  0  0  0  0  0  0  0
    6.1023   -2.1929    0.0000 O   0  0  0  0  0  0  0  0  0  0  0  0
    8.2794   -0.7751    0.0000 C   0  0  0  0  0  0  0  0  0  0  0  0
    9.5364    0.0434    0.0000 C   0  0  0  0  0  0  0  0  0  0  0  0
    9.6168   -1.4544    0.0000 C   0  0  0  0  0  0  0  0  0  0  0  0
   -6.1926   -1.7885    0.0000 C   0  0  0  0  0  0  0  0  0  0  0  0
   -7.6420   -1.4021    0.0000 C   0  0  0  0  0  0  0  0  0  0  0  0
   -8.7013   -2.4641    0.0000 O   0  0  0  0  0  0  0  0  0  0  0  0
   -8.0321    0.0463    0.0000 C   0  0  0  0  0  0  0  0  0  0  0  0
   -6.9728    1.1083    0.0000 C   0  0  0  0  0  0  0  0  0  0  0  0
   -7.3629    2.5567    0.0000 O   0  0  0  0  0  0  0  0  0  0  0  0
  1  2  2  0
  2  3  1  0
  3  4  2  0
  4  5  1  0
  5  6  2  0
  6  7  1  0
  7  8  1  0
  8  9  1  0
  9 10  1  0
 10 11  1  6
 10 12  1  0
 12 13  1  6
 13 14  1  0
 15 14  1  6
 15 16  1  0
 16 17  1  6
 16 18  1  0
 18 19  2  0
 19 20  1  0
 20 21  1  6
 20 22  1  0
 22 23  1  0
 23 24  1  0
  3 25  1  0
 25 26  1  0
 26 27  1  1
 26 28  1  0
 28 29  1  0
 29 30  1  6
 29  2  1  0
 12  6  1  0
 24 22  1  0
 15 10  1  0
M  END
>  <zinc_id>  (1) 
ZINC000003921872

>  <smiles>  (1) 
C=C1/C(=C\C=C2/CCC[C@@]3(C)[C@H]2CC[C@@H]3[C@H](C)/C=C/[C@@H](O)C2CC2)C[C@@H](O)C[C@@H]1O

$$$$
