
     RDKit          3D

 13 15  0  0  0  0  0  0  0  0999 V2000
    2.4974    1.3883   -0.0572 C   0  0  0  0  0  0  0  0  0  0  0  0
    2.2166   -0.0776   -0.7171 C   0  0  1  0  0  0  0  0  0  0  0  0
    2.7650   -0.8620    0.5150 N   0  0  0  0  0  0  0  0  0  0  0  0
    0.6693   -0.1447   -0.2573 C   0  0  2  0  0  0  0  0  0  0  0  0
    0.0873    1.0630   -0.9492 C   0  0  0  0  0  0  0  0  0  0  0  0
   -1.4015    1.1127   -0.7327 C   0  0  1  0  0  0  0  0  0  0  0  0
   -2.0621   -0.1716   -1.1341 C   0  0  0  0  0  0  0  0  0  0  0  0
   -1.3895   -1.3406   -0.4250 C   0  0  2  0  0  0  0  0  0  0  0  0
   -1.5665   -1.1099    1.0656 C   0  0  0  0  0  0  0  0  0  0  0  0
   -0.8940    0.1781    1.5186 C   0  0  2  0  0  0  0  0  0  0  0  0
   -1.5596    1.3116    0.7820 C   0  0  0  0  0  0  0  0  0  0  0  0
    0.5652    0.0310    1.2072 C   0  0  0  0  0  0  0  0  0  0  0  0
    0.0725   -1.3781   -0.8158 C   0  0  0  0  0  0  0  0  0  0  0  0
  2  1  1  1
  2  3  1  0
  2  4  1  0
  4  5  1  6
  6  5  1  1
  6  7  1  0
  8  7  1  6
  8  9  1  0
 10  9  1  6
 10 11  1  0
 10 12  1  0
  8 13  1  0
 12  4  1  0
 13  4  1  0
 11  6  1  0
M  END
>  <zinc_id>  (1) 
ZINC000003831430

>  <smiles>  (1) 
C[C@@H](N)C12CC3CC(CC(C3)C1)C2

$$$$
