
     RDKit          3D

 32 34  0  0  0  0  0  0  0  0999 V2000
   -4.7719    4.5597    0.1275 C   0  0  0  0  0  0  0  0  0  0  0  0
   -3.9260    3.3106    0.0912 C   0  0  0  0  0  0  0  0  0  0  0  0
   -4.1650    2.5136    1.3471 C   0  0  0  0  0  0  0  0  0  0  0  0
   -3.3238    1.2891    1.2986 C   0  0  0  0  0  0  0  0  0  0  0  0
   -3.6110    0.3954    0.1397 C   0  0  0  0  0  0  0  0  0  0  0  0
   -4.5344    0.7047   -0.6649 O   0  0  0  0  0  0  0  0  0  0  0  0
   -2.7997   -0.7545    0.0416 N   0  0  0  0  0  0  0  0  0  0  0  0
   -1.7722   -0.9981    0.9774 C   0  0  0  0  0  0  0  0  0  0  0  0
   -0.4753   -0.3649    0.6004 C   0  0  0  0  0  0  0  0  0  0  0  0
    0.2491    0.2731    1.5777 C   0  0  0  0  0  0  0  0  0  0  0  0
    1.4456    0.8999    1.3482 C   0  0  0  0  0  0  0  0  0  0  0  0
    1.9899    0.9134    0.0684 C   0  0  0  0  0  0  0  0  0  0  0  0
    3.2656    1.5901   -0.2325 C   0  0  0  0  0  0  0  0  0  0  0  0
    3.2180    2.9015   -0.7511 C   0  0  0  0  0  0  0  0  0  0  0  0
    4.3685    3.5681   -1.0163 C   0  0  0  0  0  0  0  0  0  0  0  0
    5.5749    2.9854   -0.7880 C   0  0  0  0  0  0  0  0  0  0  0  0
    5.6602    1.7110   -0.2853 C   0  0  0  0  0  0  0  0  0  0  0  0
    4.4832    1.0129   -0.0075 C   0  0  0  0  0  0  0  0  0  0  0  0
    4.5579   -0.3571    0.5098 C   0  0  0  0  0  0  0  0  0  0  0  0
    5.7504   -0.9791    0.7700 N   0  0  0  0  0  0  0  0  0  0  0  0
    5.5226   -2.1880    1.2060 N   0  0  0  0  0  0  0  0  0  0  0  0
    4.2125   -2.3696    1.2362 N   0  0  0  0  0  0  0  0  0  0  0  0
    3.6418   -1.2593    0.8146 N   0  0  0  0  0  0  0  0  0  0  0  0
    1.2615    0.2721   -0.9073 C   0  0  0  0  0  0  0  0  0  0  0  0
    0.0469   -0.3665   -0.6806 C   0  0  0  0  0  0  0  0  0  0  0  0
   -3.0517   -1.7332   -1.1312 C   0  0  2  0  0  0  0  0  0  0  0  0
   -4.5780   -2.1780   -0.8071 C   0  0  0  0  0  0  0  0  0  0  0  0
   -5.1637   -1.8767    0.1800 O   0  0  0  0  0  0  0  0  0  0  0  0
   -5.0925   -2.9447   -1.8247 O   0  0  0  0  0  0  0  0  0  0  0  0
   -2.3644   -3.0639   -0.3592 C   0  0  0  0  0  0  0  0  0  0  0  0
   -2.4991   -4.1633   -1.3895 C   0  0  0  0  0  0  0  0  0  0  0  0
   -3.1199   -3.3039    0.8766 C   0  0  0  0  0  0  0  0  0  0  0  0
  1  2  1  0
  2  3  1  0
  3  4  1  0
  4  5  1  0
  5  6  2  0
  5  7  1  0
  7  8  1  0
  8  9  1  0
  9 10  2  0
 10 11  1  0
 11 12  2  0
 12 13  1  0
 13 14  2  0
 14 15  1  0
 15 16  2  0
 16 17  1  0
 17 18  2  0
 18 19  1  0
 19 20  1  0
 20 21  2  0
 21 22  1  0
 22 23  1  0
 12 24  1  0
 24 25  2  0
  7 26  1  0
 26 27  1  0
 27 28  2  0
 27 29  1  0
 26 30  1  1
 30 31  1  0
 30 32  1  0
 25  9  1  0
 18 13  1  0
 23 19  2  0
M  END
>  <zinc_id>  (1) 
ZINC000003875259

>  <smiles>  (1) 
CCCCC(=O)N(Cc1ccc(-c2ccccc2-c2nn[nH]n2)cc1)[C@H](C(=O)O)C(C)C

$$$$
