
     RDKit          3D

 20 22  0  0  0  0  0  0  0  0999 V2000
    2.6703    2.6154   -0.6518 C   0  0  0  0  0  0  0  0  0  0  0  0
    3.4215    1.4512   -0.5088 N   0  0  0  0  0  0  0  0  0  0  0  0
    3.8027    1.0700    0.8012 C   0  0  0  0  0  0  0  0  0  0  0  0
    3.6251    0.5212   -1.4848 C   0  0  0  0  0  0  0  0  0  0  0  0
    2.5810   -0.3369   -1.9387 C   0  0  0  0  0  0  0  0  0  0  0  0
    1.9198   -1.3099   -1.0896 C   0  0  0  0  0  0  0  0  0  0  0  0
    2.2014   -2.6792   -0.9859 C   0  0  0  0  0  0  0  0  0  0  0  0
    1.3843   -3.2209   -0.0935 N   0  0  0  0  0  0  0  0  0  0  0  0
    0.5548   -2.3058    0.4243 C   0  0  0  0  0  0  0  0  0  0  0  0
   -0.4629   -2.3370    1.3504 C   0  0  0  0  0  0  0  0  0  0  0  0
   -1.1898   -1.2175    1.7060 C   0  0  0  0  0  0  0  0  0  0  0  0
   -0.8723   -0.0035    1.0935 C   0  0  0  0  0  0  0  0  0  0  0  0
   -1.5964    1.2451    1.4329 C   0  0  0  0  0  0  0  0  0  0  0  0
   -2.7974    1.4303    0.6613 N   0  0  0  0  0  0  0  0  0  0  0  0
   -3.9932    0.9521    1.1056 C   0  0  0  0  0  0  0  0  0  0  0  0
   -4.9231    1.2672    0.1999 N   0  0  0  0  0  0  0  0  0  0  0  0
   -4.3381    1.9330   -0.8041 C   0  0  0  0  0  0  0  0  0  0  0  0
   -3.0112    2.0270   -0.5001 N   0  0  0  0  0  0  0  0  0  0  0  0
    0.1322   -0.0034    0.1872 C   0  0  0  0  0  0  0  0  0  0  0  0
    0.8914   -1.0982   -0.2035 C   0  0  0  0  0  0  0  0  0  0  0  0
  1  2  1  0
  2  3  1  0
  2  4  1  0
  4  5  1  0
  5  6  1  0
  6  7  2  0
  7  8  1  0
  8  9  1  0
  9 10  2  0
 10 11  1  0
 11 12  2  0
 12 13  1  0
 13 14  1  0
 14 15  1  0
 15 16  2  0
 16 17  1  0
 17 18  2  0
 12 19  1  0
 19 20  2  0
 20  6  1  0
 20  9  1  0
 18 14  1  0
M  END
>  <zinc_id>  (1) 
ZINC000000005895

>  <smiles>  (1) 
CN(C)CCc1c[nH]c2ccc(Cn3cncn3)cc12

$$$$
