
     RDKit          3D

 11 11  0  0  0  0  0  0  0  0999 V2000
    2.0411    1.3863   -0.7817 C   0  0  0  0  0  0  0  0  0  0  0  0
    2.5130    0.0805    0.1233 C   0  0  2  0  0  0  0  0  0  0  0  0
    3.8377   -0.1369   -0.7437 N   0  0  0  0  0  0  0  0  0  0  0  0
    1.6443   -0.9871   -0.7976 C   0  0  0  0  0  0  0  0  0  0  0  0
    0.2545   -0.5499   -0.6823 C   0  0  0  0  0  0  0  0  0  0  0  0
   -0.3075    0.3262   -1.5560 C   0  0  0  0  0  0  0  0  0  0  0  0
   -1.6067    0.7273   -1.4381 C   0  0  0  0  0  0  0  0  0  0  0  0
   -2.3589    0.2386   -0.4210 C   0  0  0  0  0  0  0  0  0  0  0  0
   -3.6938    0.6012   -0.2348 O   0  0  0  0  0  0  0  0  0  0  0  0
   -1.8165   -0.6394    0.4649 C   0  0  0  0  0  0  0  0  0  0  0  0
   -0.5071   -1.0468    0.3502 C   0  0  0  0  0  0  0  0  0  0  0  0
  2  1  1  6
  2  3  1  0
  2  4  1  0
  4  5  1  0
  5  6  2  0
  6  7  1  0
  7  8  2  0
  8  9  1  0
  8 10  1  0
 10 11  2  0
 11  5  1  0
M  END
>  <zinc_id>  (1) 
ZINC000001690604

>  <smiles>  (1) 
C[C@H](N)Cc1ccc(O)cc1

$$$$
