
     RDKit          3D

 20 21  0  0  0  0  0  0  0  0999 V2000
    3.8526   -1.5181    0.1796 C   0  0  0  0  0  0  0  0  0  0  0  0
    3.1104   -1.2048    0.4982 N   0  0  0  0  0  0  0  0  0  0  0  0
    3.2178    0.3547    0.7181 C   0  0  1  0  0  0  0  0  0  0  0  0
    2.6635    0.7583   -0.7809 C   0  0  0  0  0  0  0  0  0  0  0  0
    2.7084    2.5476   -0.7377 Cl  0  0  0  0  0  0  0  0  0  0  0  0
    1.9127    0.4935    1.5544 N   0  0  0  0  0  0  0  0  0  0  0  0
    0.6417    0.4442    1.0910 C   0  0  0  0  0  0  0  0  0  0  0  0
   -0.3628    1.3241    1.5324 C   0  0  0  0  0  0  0  0  0  0  0  0
   -1.6140    1.1676    0.9770 C   0  0  0  0  0  0  0  0  0  0  0  0
   -2.9088    2.2473    1.4978 Cl  0  0  0  0  0  0  0  0  0  0  0  0
   -1.9348    0.2185    0.0324 C   0  0  0  0  0  0  0  0  0  0  0  0
   -3.5488    0.0830   -0.6263 S   0  0  0  0  0  0  0  0  0  0  0  0
   -3.9775    1.5417   -1.3916 N   0  0  0  0  0  0  0  0  0  0  0  0
   -4.4888   -0.2496    0.5227 O   0  0  0  0  0  0  0  0  0  0  0  0
   -3.5641   -1.0985   -1.5388 O   0  0  0  0  0  0  0  0  0  0  0  0
   -0.8891   -0.6297   -0.3666 C   0  0  0  0  0  0  0  0  0  0  0  0
    0.3497   -0.5189    0.1449 C   0  0  0  0  0  0  0  0  0  0  0  0
    1.6673   -1.5616   -0.3011 S   0  0  0  0  0  0  0  0  0  0  0  0
    1.2991   -2.9784   -0.0009 O   0  0  0  0  0  0  0  0  0  0  0  0
    1.8656   -1.4209   -1.7772 O   0  0  0  0  0  0  0  0  0  0  0  0
  1  2  1  0
  2  3  1  0
  3  4  1  6
  4  5  1  0
  3  6  1  0
  6  7  1  0
  7  8  2  0
  8  9  1  0
  9 10  1  0
  9 11  2  0
 11 12  1  0
 12 13  1  0
 12 14  2  0
 12 15  2  0
 11 16  1  0
 16 17  2  0
 17 18  1  0
 18 19  2  0
 18 20  2  0
 18  2  1  0
 17  7  1  0
M  END
>  <zinc_id>  (1) 
ZINC000000897229

>  <smiles>  (1) 
CN1[C@@H](CCl)Nc2cc(Cl)c(S(N)(=O)=O)cc2S1(=O)=O

$$$$
