
     RDKit          3D

 36 40  0  0  0  0  0  0  0  0999 V2000
   -8.9613    0.7038    2.3658 C   0  0  0  0  0  0  0  0  0  0  0  0
   -8.3581    1.2094    2.1650 C   0  0  0  0  0  0  0  0  0  0  0  0
   -6.9923    1.2875    2.5411 O   0  0  0  0  0  0  0  0  0  0  0  0
   -6.0894    0.2659    2.3128 C   0  0  0  0  0  0  0  0  0  0  0  0
   -6.4707   -0.7924    1.7482 O   0  0  0  0  0  0  0  0  0  0  0  0
   -4.7336    0.3563    2.6915 N   0  0  0  0  0  0  0  0  0  0  0  0
   -3.7976   -0.8486    2.3974 C   0  0  2  0  0  0  0  0  0  0  0  0
   -2.4605    0.0883    2.1555 C   0  0  0  0  0  0  0  0  0  0  0  0
   -1.4055   -0.8178    1.5444 C   0  0  0  0  0  0  0  0  0  0  0  0
   -1.9898   -0.6924    0.0327 C   0  0  2  0  0  0  0  0  0  0  0  0
   -3.0661   -1.9316    0.3521 C   0  0  2  0  0  0  0  0  0  0  0  0
   -3.5887   -2.2541   -1.0678 C   0  0  0  0  0  0  0  0  0  0  0  0
   -3.0281   -1.6830   -2.3942 C   0  0  1  0  0  0  0  0  0  0  0  0
   -3.4801   -0.2402   -2.5125 C   0  0  0  0  0  0  0  0  0  0  0  0
   -4.5483    0.0726   -2.0591 O   0  0  0  0  0  0  0  0  0  0  0  0
   -2.5154    0.3249   -3.1263 O   0  0  0  0  0  0  0  0  0  0  0  0
   -1.3353    0.1306   -2.2073 C   0  0  2  0  0  0  0  0  0  0  0  0
   -0.2669    0.1139   -3.5012 C   0  0  0  0  0  0  0  0  0  0  0  0
   -1.3958   -1.5399   -2.2274 C   0  0  1  0  0  0  0  0  0  0  0  0
   -1.0569   -1.9066   -0.6684 C   0  0  1  0  0  0  0  0  0  0  0  0
    0.2705   -1.0590   -0.5901 C   0  0  0  0  0  0  0  0  0  0  0  0
    1.3947   -1.6805   -0.3124 C   0  0  0  0  0  0  0  0  0  0  0  0
    2.6746   -0.9718   -0.2201 C   0  0  0  0  0  0  0  0  0  0  0  0
    2.7792    0.3822   -0.4180 C   0  0  0  0  0  0  0  0  0  0  0  0
    3.9863    1.0473   -0.3323 C   0  0  0  0  0  0  0  0  0  0  0  0
    5.1632    0.3545   -0.0362 C   0  0  0  0  0  0  0  0  0  0  0  0
    6.4595    1.0046    0.0654 C   0  0  0  0  0  0  0  0  0  0  0  0
    7.4065    0.5022    0.9293 C   0  0  0  0  0  0  0  0  0  0  0  0
    8.6704    1.1074    1.0536 C   0  0  0  0  0  0  0  0  0  0  0  0
    8.9384    2.2175    0.2882 C   0  0  0  0  0  0  0  0  0  0  0  0
    8.0262    2.7479   -0.5817 C   0  0  0  0  0  0  0  0  0  0  0  0
    8.3314    3.8480   -1.3214 F   0  0  0  0  0  0  0  0  0  0  0  0
    6.7886    2.1213   -0.6761 C   0  0  0  0  0  0  0  0  0  0  0  0
    5.0236   -0.9993    0.1561 C   0  0  0  0  0  0  0  0  0  0  0  0
    3.8312   -1.5844    0.0600 N   0  0  0  0  0  0  0  0  0  0  0  0
   -4.2037   -0.8847    0.8236 C   0  0  0  0  0  0  0  0  0  0  0  0
  1  2  1  0
  2  3  1  0
  3  4  1  0
  4  5  2  0
  4  6  1  0
  7  6  1  1
  7  8  1  0
  8  9  1  0
 10  9  1  1
 10 11  1  0
 11 12  1  6
 13 12  1  1
 13 14  1  0
 14 15  2  0
 14 16  1  0
 16 17  1  0
 17 18  1  6
 19 17  1  1
 19 20  1  0
 20 21  1  6
 21 22  2  0
 22 23  1  0
 23 24  2  0
 24 25  1  0
 25 26  2  0
 26 27  1  0
 27 28  2  0
 28 29  1  0
 29 30  2  0
 30 31  1  0
 31 32  1  0
 31 33  2  0
 26 34  1  0
 34 35  2  0
 11 36  1  0
 36  7  1  0
 20 10  1  0
 35 23  1  0
 19 13  1  0
 33 27  1  0
M  END
>  <zinc_id>  (1) 
ZINC000003925861

>  <smiles>  (1) 
CCOC(=O)N[C@@H]1CC[C@@H]2[C@@H](C1)C[C@H]1C(=O)O[C@H](C)[C@H]1[C@H]2/C=C/c1ccc(-c2cccc(F)c2)cn1

$$$$
