
     RDKit          3D

 15 16  0  0  0  0  0  0  0  0999 V2000
    2.5127    0.6596    1.4199 C   0  0  0  0  0  0  0  0  0  0  0  0
    1.9552    0.3482    1.1103 C   0  0  0  0  0  0  0  0  0  0  0  0
    1.9143   -0.9156    0.1034 C   0  0  2  0  0  0  0  0  0  0  0  0
    2.8124   -0.2426   -1.0055 C   0  0  0  0  0  0  0  0  0  0  0  0
    3.8594   -0.7964   -1.4053 O   0  0  0  0  0  0  0  0  0  0  0  0
    2.2415    0.9277   -1.3668 O   0  0  0  0  0  0  0  0  0  0  0  0
    0.9073    1.0471   -0.9102 C   0  0  0  0  0  0  0  0  0  0  0  0
    0.5219   -0.5046   -0.7512 C   0  0  2  0  0  0  0  0  0  0  0  0
   -0.3862   -0.3254    0.5590 C   0  0  0  0  0  0  0  0  0  0  0  0
   -1.7170    0.0537    0.0317 C   0  0  0  0  0  0  0  0  0  0  0  0
   -2.1227    1.3520   -0.1926 C   0  0  0  0  0  0  0  0  0  0  0  0
   -3.3778    1.3319   -0.6696 N   0  0  0  0  0  0  0  0  0  0  0  0
   -3.7220    0.0348   -0.7311 C   0  0  0  0  0  0  0  0  0  0  0  0
   -2.7277   -0.7629   -0.3095 N   0  0  0  0  0  0  0  0  0  0  0  0
   -2.6713   -2.2075   -0.2104 C   0  0  0  0  0  0  0  0  0  0  0  0
  1  2  1  0
  3  2  1  1
  3  4  1  0
  4  5  2  0
  4  6  1  0
  6  7  1  0
  7  8  1  0
  8  9  1  1
  9 10  1  0
 10 11  2  0
 11 12  1  0
 12 13  2  0
 13 14  1  0
 14 15  1  0
  8  3  1  0
 14 10  1  0
M  END
>  <zinc_id>  (1) 
ZINC000000075008

>  <smiles>  (1) 
CC[C@@H]1C(=O)OC[C@@H]1Cc1cncn1C

$$$$
