
     RDKit          3D

 29 31  0  0  0  0  0  0  0  0999 V2000
    7.7787    0.0489    0.2599 C   0  0  0  0  0  0  0  0  0  0  0  0
    6.4670    0.7986    0.4122 C   0  0  0  0  0  0  0  0  0  0  0  0
    5.7864    0.7330   -0.8660 N   0  0  0  0  0  0  0  0  0  0  0  0
    4.5222    1.4096   -0.8351 C   0  0  0  0  0  0  0  0  0  0  0  0
    4.7254    2.9189   -0.6848 C   0  0  0  0  0  0  0  0  0  0  0  0
    5.7570   -0.6170   -1.3268 C   0  0  0  0  0  0  0  0  0  0  0  0
    4.9279   -1.5703   -0.5731 C   0  0  0  0  0  0  0  0  0  0  0  0
    3.5290   -1.2196   -0.5858 N   0  0  0  0  0  0  0  0  0  0  0  0
    2.6597   -2.0760    0.1404 C   0  0  0  0  0  0  0  0  0  0  0  0
    3.1362   -3.0620    0.7521 O   0  0  0  0  0  0  0  0  0  0  0  0
    1.2360   -1.8305    0.1882 C   0  0  0  0  0  0  0  0  0  0  0  0
    0.3123   -2.5347    0.9569 C   0  0  0  0  0  0  0  0  0  0  0  0
    0.6268   -3.6508    1.8782 C   0  0  0  0  0  0  0  0  0  0  0  0
   -0.8907   -2.0499    0.7366 N   0  0  0  0  0  0  0  0  0  0  0  0
   -0.8224   -1.0524   -0.1448 C   0  0  0  0  0  0  0  0  0  0  0  0
   -1.9482   -0.2787   -0.6323 C   0  0  0  0  0  0  0  0  0  0  0  0
   -2.8770    0.3073    0.0777 C   0  0  0  0  0  0  0  0  0  0  0  0
   -2.9939    0.3220    1.5215 C   0  0  0  0  0  0  0  0  0  0  0  0
   -2.2145   -0.2114    2.3462 O   0  0  0  0  0  0  0  0  0  0  0  0
   -4.1821    1.0728    1.8115 N   0  0  0  0  0  0  0  0  0  0  0  0
   -4.8023    1.5210    0.6200 C   0  0  0  0  0  0  0  0  0  0  0  0
   -5.9536    2.2709    0.3834 C   0  0  0  0  0  0  0  0  0  0  0  0
   -6.3324    2.5680   -0.8974 C   0  0  0  0  0  0  0  0  0  0  0  0
   -5.5620    2.1183   -1.9573 C   0  0  0  0  0  0  0  0  0  0  0  0
   -5.9110    2.4029   -3.2364 F   0  0  0  0  0  0  0  0  0  0  0  0
   -4.4235    1.3766   -1.7111 C   0  0  0  0  0  0  0  0  0  0  0  0
   -4.0299    1.0683   -0.4213 C   0  0  0  0  0  0  0  0  0  0  0  0
    0.5122   -0.8983   -0.5036 C   0  0  0  0  0  0  0  0  0  0  0  0
    0.9668    0.1144   -1.4716 C   0  0  0  0  0  0  0  0  0  0  0  0
  1  2  1  0
  2  3  1  0
  3  4  1  0
  4  5  1  0
  3  6  1  0
  6  7  1  0
  7  8  1  0
  8  9  1  0
  9 10  2  0
  9 11  1  0
 11 12  2  0
 12 13  1  0
 12 14  1  0
 14 15  1  0
 15 16  1  0
 16 17  2  0
 17 18  1  0
 18 19  2  0
 18 20  1  0
 20 21  1  0
 21 22  2  0
 22 23  1  0
 23 24  2  0
 24 25  1  0
 24 26  1  0
 26 27  2  0
 15 28  2  0
 28 29  1  0
 28 11  1  0
 27 17  1  0
 27 21  1  0
M  END
>  <zinc_id>  (1) 
ZINC000003964325

>  <smiles>  (1) 
CCN(CC)CCNC(=O)c1c(C)[nH]c(/C=C2\C(=O)Nc3ccc(F)cc32)c1C

$$$$
