
     RDKit          3D

 15 15  0  0  0  0  0  0  0  0999 V2000
    2.3283    2.5352   -0.1741 O   0  0  0  0  0  0  0  0  0  0  0  0
    2.2585    1.6377    0.7090 N   0  0  0  0  0  0  0  0  0  0  0  0
    1.8897    0.3317    0.2942 N   0  0  0  0  0  0  0  0  0  0  0  0
    2.9647   -0.6370    0.2787 C   0  0  0  0  0  0  0  0  0  0  0  0
    3.6669   -0.6535   -1.0757 C   0  0  0  0  0  0  0  0  0  0  0  0
    4.9593   -1.8539   -1.0066 Cl  0  0  0  0  0  0  0  0  0  0  0  0
    0.5638    0.0319   -0.0725 C   0  0  0  0  0  0  0  0  0  0  0  0
    0.3399   -1.1717   -0.4294 O   0  0  0  0  0  0  0  0  0  0  0  0
   -0.5214    0.9318   -0.0786 N   0  0  0  0  0  0  0  0  0  0  0  0
   -1.8374    0.5264   -0.4687 C   0  0  0  0  0  0  0  0  0  0  0  0
   -2.8505    0.7624    0.6226 C   0  0  0  0  0  0  0  0  0  0  0  0
   -4.2312    0.3788    0.1473 C   0  0  0  0  0  0  0  0  0  0  0  0
   -4.2733   -0.9998   -0.4736 C   0  0  0  0  0  0  0  0  0  0  0  0
   -3.3335   -0.9728   -1.6683 C   0  0  0  0  0  0  0  0  0  0  0  0
   -1.9237   -0.8472   -1.0693 C   0  0  0  0  0  0  0  0  0  0  0  0
  1  2  2  0
  2  3  1  0
  3  4  1  0
  4  5  1  0
  5  6  1  0
  3  7  1  0
  7  8  2  0
  7  9  1  0
  9 10  1  0
 10 11  1  0
 11 12  1  0
 12 13  1  0
 13 14  1  0
 14 15  1  0
 15 10  1  0
M  END
>  <zinc_id>  (1) 
ZINC000003831006

>  <smiles>  (1) 
O=NN(CCCl)C(=O)NC1CCCCC1

$$$$
