
     RDKit          3D

 35 39  0  0  0  0  0  0  0  0999 V2000
   -5.5072    0.4999   -0.9413 C   0  0  0  0  0  0  0  0  0  0  0  0
   -4.2995   -0.1312   -0.3541 C   0  0  0  0  0  0  0  0  0  0  0  0
   -3.9971   -1.4726   -0.4469 C   0  0  0  0  0  0  0  0  0  0  0  0
   -4.6143   -2.5646   -1.0308 C   0  0  0  0  0  0  0  0  0  0  0  0
   -4.0603   -3.8219   -0.9574 C   0  0  0  0  0  0  0  0  0  0  0  0
   -4.7107   -4.8934   -1.5572 O   0  0  0  0  0  0  0  0  0  0  0  0
   -2.8687   -3.9595   -0.2821 C   0  0  0  0  0  0  0  0  0  0  0  0
   -2.2466   -2.8521    0.3080 C   0  0  0  0  0  0  0  0  0  0  0  0
   -2.8083   -1.6019    0.2284 C   0  0  0  0  0  0  0  0  0  0  0  0
   -2.4064   -0.3818    0.7105 N   0  0  0  0  0  0  0  0  0  0  0  0
   -1.1967   -0.1968    1.4838 C   0  0  0  0  0  0  0  0  0  0  0  0
    0.0279   -0.1140    0.6682 C   0  0  0  0  0  0  0  0  0  0  0  0
    0.6781   -1.3113    0.3683 C   0  0  0  0  0  0  0  0  0  0  0  0
    1.8228   -1.3317   -0.3819 C   0  0  0  0  0  0  0  0  0  0  0  0
    2.3557   -0.1672   -0.8562 C   0  0  0  0  0  0  0  0  0  0  0  0
    3.5123   -0.0708   -1.6280 O   0  0  0  0  0  0  0  0  0  0  0  0
    4.2663   -1.1680   -1.9983 C   0  0  0  0  0  0  0  0  0  0  0  0
    4.8586   -1.8776   -0.8459 C   0  0  0  0  0  0  0  0  0  0  0  0
    5.7876   -1.1009   -0.0883 N   0  0  0  0  0  0  0  0  0  0  0  0
    5.2559   -0.0026    0.6503 C   0  0  0  0  0  0  0  0  0  0  0  0
    5.9857    1.2852    0.3999 C   0  0  0  0  0  0  0  0  0  0  0  0
    7.3479    1.3113    1.0093 C   0  0  0  0  0  0  0  0  0  0  0  0
    8.1374    0.0567    0.8266 C   0  0  0  0  0  0  0  0  0  0  0  0
    7.4847   -1.0640    1.5816 C   0  0  0  0  0  0  0  0  0  0  0  0
    6.6676   -1.9572    0.6503 C   0  0  0  0  0  0  0  0  0  0  0  0
    1.7104    1.0275   -0.5589 C   0  0  0  0  0  0  0  0  0  0  0  0
    0.5782    1.0146    0.1869 C   0  0  0  0  0  0  0  0  0  0  0  0
   -3.3000    0.5438    0.3736 C   0  0  0  0  0  0  0  0  0  0  0  0
   -3.3604    1.9675    0.6676 C   0  0  0  0  0  0  0  0  0  0  0  0
   -2.4734    2.6453    1.4589 C   0  0  0  0  0  0  0  0  0  0  0  0
   -2.5488    3.9955    1.7200 C   0  0  0  0  0  0  0  0  0  0  0  0
   -3.5695    4.7500    1.1670 C   0  0  0  0  0  0  0  0  0  0  0  0
   -3.6525    6.1188    1.4268 O   0  0  0  0  0  0  0  0  0  0  0  0
   -4.4758    4.0876    0.3649 C   0  0  0  0  0  0  0  0  0  0  0  0
   -4.3807    2.7377    0.1183 C   0  0  0  0  0  0  0  0  0  0  0  0
  1  2  1  0
  2  3  1  0
  3  4  2  0
  4  5  1  0
  5  6  1  0
  5  7  2  0
  7  8  1  0
  8  9  2  0
  9 10  1  0
 10 11  1  0
 11 12  1  0
 12 13  2  0
 13 14  1  0
 14 15  2  0
 15 16  1  0
 16 17  1  0
 17 18  1  0
 18 19  1  0
 19 20  1  0
 20 21  1  0
 21 22  1  0
 22 23  1  0
 23 24  1  0
 24 25  1  0
 15 26  1  0
 26 27  2  0
 10 28  1  0
 28 29  1  0
 29 30  2  0
 30 31  1  0
 31 32  2  0
 32 33  1  0
 32 34  1  0
 34 35  2  0
 28  2  2  0
 35 29  1  0
  9  3  1  0
 27 12  1  0
 25 19  1  0
M  END
>  <zinc_id>  (1) 
ZINC000001895505

>  <smiles>  (1) 
Cc1c(-c2ccc(O)cc2)n(Cc2ccc(OCCN3CCCCCC3)cc2)c2ccc(O)cc12

$$$$
