
     RDKit          3D

 26 29  0  0  0  0  0  0  0  0999 V2000
    4.8069    0.0246    1.6838 C   0  0  0  0  0  0  0  0  0  0  0  0
    4.1720   -0.3493    0.4449 N   0  0  1  0  0  0  0  0  0  0  0  0
    4.5928    0.5845   -0.6074 C   0  0  0  0  0  0  0  0  0  0  0  0
    3.5205    0.4317   -1.6900 C   0  0  0  0  0  0  0  0  0  0  0  0
    3.1631   -0.9915   -1.7542 C   0  0  1  0  0  0  0  0  0  0  0  0
    4.3255   -1.9091   -1.3834 C   0  0  0  0  0  0  0  0  0  0  0  0
    4.5424   -1.7014    0.1047 C   0  0  0  0  0  0  0  0  0  0  0  0
    2.1302   -1.3211   -0.5006 C   0  0  2  0  0  0  0  0  0  0  0  0
    1.0158   -0.4050   -1.0519 O   0  0  0  0  0  0  0  0  0  0  0  0
   -0.1122   -0.3792   -0.2561 C   0  0  0  0  0  0  0  0  0  0  0  0
   -0.0804   -1.0860    0.7819 O   0  0  0  0  0  0  0  0  0  0  0  0
   -1.3280    0.4354   -0.5801 C   0  0  0  0  0  0  0  0  0  0  0  0
   -1.1608    1.1446   -1.7712 O   0  0  0  0  0  0  0  0  0  0  0  0
   -2.4129   -0.5225   -0.8269 C   0  0  0  0  0  0  0  0  0  0  0  0
   -2.7123   -1.3530    0.2341 C   0  0  0  0  0  0  0  0  0  0  0  0
   -3.6823   -2.3081    0.2089 C   0  0  0  0  0  0  0  0  0  0  0  0
   -4.4140   -2.4583   -0.9482 C   0  0  0  0  0  0  0  0  0  0  0  0
   -4.1394   -1.6379   -2.0387 C   0  0  0  0  0  0  0  0  0  0  0  0
   -3.1411   -0.6764   -1.9698 C   0  0  0  0  0  0  0  0  0  0  0  0
   -1.5897    1.4288    0.4623 C   0  0  0  0  0  0  0  0  0  0  0  0
   -2.6284    2.3196    0.1904 C   0  0  0  0  0  0  0  0  0  0  0  0
   -3.0109    3.3127    1.0511 C   0  0  0  0  0  0  0  0  0  0  0  0
   -2.3403    3.4428    2.2455 C   0  0  0  0  0  0  0  0  0  0  0  0
   -1.3068    2.5649    2.5279 C   0  0  0  0  0  0  0  0  0  0  0  0
   -0.9415    1.5708    1.6402 C   0  0  0  0  0  0  0  0  0  0  0  0
    2.7316   -0.1618    0.5251 C   0  0  0  0  0  0  0  0  0  0  0  0
  2  1  1  1
  2  3  1  0
  3  4  1  0
  5  4  1  1
  5  6  1  0
  6  7  1  0
  5  8  1  0
  8  9  1  6
  9 10  1  0
 10 11  2  0
 10 12  1  0
 12 13  1  0
 12 14  1  0
 14 15  2  0
 15 16  1  0
 16 17  2  0
 17 18  1  0
 18 19  2  0
 12 20  1  0
 20 21  2  0
 21 22  1  0
 22 23  2  0
 23 24  1  0
 24 25  2  0
  8 26  1  0
  7  2  1  0
 19 14  1  0
 25 20  1  0
 26  2  1  0
M  CHG  1   2   1
M  END
>  <zinc_id>  (1) 
ZINC000000601316

>  <smiles>  (1) 
C[N+]12CCC(CC1)[C@H](OC(=O)C(O)(c1ccccc1)c1ccccc1)C2

$$$$
