
     RDKit          3D

 22 24  0  0  0  0  0  0  0  0999 V2000
   -0.0303    0.6842   -2.3011 O   0  0  0  0  0  0  0  0  0  0  0  0
    0.4236    0.3822   -0.9921 C   0  0  0  0  0  0  0  0  0  0  0  0
    1.6889   -0.4550   -1.2355 C   0  0  0  0  0  0  0  0  0  0  0  0
    2.2897   -0.8521    0.0338 N   0  0  0  0  0  0  0  0  0  0  0  0
    2.0682   -1.9457    0.7720 C   0  0  0  0  0  0  0  0  0  0  0  0
    2.8206   -1.9517    1.8837 N   0  0  0  0  0  0  0  0  0  0  0  0
    3.5308   -0.8010    1.8084 C   0  0  0  0  0  0  0  0  0  0  0  0
    3.1978   -0.1484    0.6841 N   0  0  0  0  0  0  0  0  0  0  0  0
    0.8337    1.5762   -0.2477 C   0  0  0  0  0  0  0  0  0  0  0  0
   -0.1343    2.6121   -0.0495 N   0  0  0  0  0  0  0  0  0  0  0  0
   -1.0286    2.8992    0.8948 C   0  0  0  0  0  0  0  0  0  0  0  0
   -1.7261    4.0127    0.6206 N   0  0  0  0  0  0  0  0  0  0  0  0
   -1.2507    4.4524   -0.5543 C   0  0  0  0  0  0  0  0  0  0  0  0
   -0.2921    3.5995   -0.9471 N   0  0  0  0  0  0  0  0  0  0  0  0
   -0.5724   -0.5191   -0.3853 C   0  0  0  0  0  0  0  0  0  0  0  0
   -1.2741   -0.2747    0.7668 C   0  0  0  0  0  0  0  0  0  0  0  0
   -2.1658   -1.1976    1.2437 C   0  0  0  0  0  0  0  0  0  0  0  0
   -2.4132   -2.4006    0.6179 C   0  0  0  0  0  0  0  0  0  0  0  0
   -3.3086   -3.3026    1.1166 F   0  0  0  0  0  0  0  0  0  0  0  0
   -1.7017   -2.6324   -0.5376 C   0  0  0  0  0  0  0  0  0  0  0  0
   -0.8113   -1.7314   -1.0302 C   0  0  0  0  0  0  0  0  0  0  0  0
   -0.1440   -2.0060   -2.1622 F   0  0  0  0  0  0  0  0  0  0  0  0
  1  2  1  0
  2  3  1  0
  3  4  1  0
  4  5  1  0
  5  6  2  0
  6  7  1  0
  7  8  2  0
  2  9  1  0
  9 10  1  0
 10 11  1  0
 11 12  2  0
 12 13  1  0
 13 14  2  0
  2 15  1  0
 15 16  2  0
 16 17  1  0
 17 18  2  0
 18 19  1  0
 18 20  1  0
 20 21  2  0
 21 22  1  0
  8  4  1  0
 14 10  1  0
 21 15  1  0
M  END
>  <zinc_id>  (1) 
ZINC000000004009

>  <smiles>  (1) 
OC(Cn1cncn1)(Cn1cncn1)c1ccc(F)cc1F

$$$$
