
     RDKit          3D

 37 41  0  0  0  0  0  0  0  0999 V2000
    1.8810    2.2329   -2.3463 C   0  0  0  0  0  0  0  0  0  0  0  0
    1.5745    1.7194   -1.8054 O   0  0  0  0  0  0  0  0  0  0  0  0
    2.0525    0.6729   -1.1240 C   0  0  0  0  0  0  0  0  0  0  0  0
    3.3852    0.3619   -1.3766 N   0  0  0  0  0  0  0  0  0  0  0  0
    3.9829   -0.6680   -0.7553 C   0  0  0  0  0  0  0  0  0  0  0  0
    5.2866   -0.9724   -1.0039 C   0  0  0  0  0  0  0  0  0  0  0  0
    5.8980   -2.0405   -0.3585 C   0  0  0  0  0  0  0  0  0  0  0  0
    5.2042   -2.8162    0.5459 C   0  0  0  0  0  0  0  0  0  0  0  0
    6.0384   -4.3010    1.4489 Br  0  0  0  0  0  0  0  0  0  0  0  0
    3.8900   -2.4830    0.7750 C   0  0  0  0  0  0  0  0  0  0  0  0
    3.2574   -1.4174    0.1399 C   0  0  0  0  0  0  0  0  0  0  0  0
    1.9446   -1.0815    0.3641 C   0  0  0  0  0  0  0  0  0  0  0  0
    1.3105    0.0304   -0.3106 C   0  0  0  0  0  0  0  0  0  0  0  0
   -0.0884    0.1123    0.1565 C   0  0  1  0  0  0  0  0  0  0  0  0
   -0.0669    1.4040    1.0777 C   0  0  0  0  0  0  0  0  0  0  0  0
   -0.3189    2.6175    0.7022 C   0  0  0  0  0  0  0  0  0  0  0  0
   -0.2871    3.7026    1.5235 C   0  0  0  0  0  0  0  0  0  0  0  0
    0.0357    3.4989    2.8494 C   0  0  0  0  0  0  0  0  0  0  0  0
    0.3106    2.2115    3.2821 C   0  0  0  0  0  0  0  0  0  0  0  0
    0.2646    1.1548    2.4145 C   0  0  0  0  0  0  0  0  0  0  0  0
   -1.2121    0.4947   -0.8187 C   0  0  1  0  0  0  0  0  0  0  0  0
   -1.2720    1.6460   -1.4101 O   0  0  0  0  0  0  0  0  0  0  0  0
   -1.5395   -0.7749   -1.6006 C   0  0  0  0  0  0  0  0  0  0  0  0
   -2.6250   -0.5182   -2.5855 C   0  0  0  0  0  0  0  0  0  0  0  0
   -2.2021    0.5232   -3.5263 N   0  0  0  0  0  0  0  0  0  0  0  0
   -3.3105    0.7059   -4.4420 C   0  0  0  0  0  0  0  0  0  0  0  0
   -1.0453    0.1292   -4.2924 C   0  0  0  0  0  0  0  0  0  0  0  0
   -2.4359    0.5097    0.0688 C   0  0  0  0  0  0  0  0  0  0  0  0
   -3.3167    1.5539    0.1526 C   0  0  0  0  0  0  0  0  0  0  0  0
   -4.4103    1.5713    0.9435 C   0  0  0  0  0  0  0  0  0  0  0  0
   -4.6494    0.4437    1.7239 C   0  0  0  0  0  0  0  0  0  0  0  0
   -3.7999   -0.6134    1.6692 C   0  0  0  0  0  0  0  0  0  0  0  0
   -4.0163   -1.7394    2.4177 C   0  0  0  0  0  0  0  0  0  0  0  0
   -3.1439   -2.8309    2.3501 C   0  0  0  0  0  0  0  0  0  0  0  0
   -2.0564   -2.7770    1.5250 C   0  0  0  0  0  0  0  0  0  0  0  0
   -1.8246   -1.6653    0.7733 C   0  0  0  0  0  0  0  0  0  0  0  0
   -2.6954   -0.5974    0.8522 C   0  0  0  0  0  0  0  0  0  0  0  0
  1  2  1  0
  2  3  1  0
  3  4  2  0
  4  5  1  0
  5  6  2  0
  6  7  1  0
  7  8  2  0
  8  9  1  0
  8 10  1  0
 10 11  2  0
 11 12  1  0
 12 13  2  0
 14 13  1  6
 14 15  1  0
 15 16  2  0
 16 17  1  0
 17 18  2  0
 18 19  1  0
 19 20  2  0
 14 21  1  0
 21 22  1  6
 21 23  1  0
 23 24  1  0
 24 25  1  0
 25 26  1  0
 25 27  1  0
 21 28  1  0
 28 29  2  0
 29 30  1  0
 30 31  2  0
 31 32  1  0
 32 33  2  0
 33 34  1  0
 34 35  2  0
 35 36  1  0
 36 37  2  0
 13  3  1  0
 20 15  1  0
 37 28  1  0
 11  5  1  0
 37 32  1  0
M  END
>  <zinc_id>  (1) 
ZINC000004655029

>  <smiles>  (1) 
COc1nc2ccc(Br)cc2cc1[C@@H](c1ccccc1)[C@@](O)(CCN(C)C)c1cccc2ccccc12

$$$$
