
     RDKit          3D

 18 19  0  0  0  0  0  0  0  0999 V2000
   -3.1308   -0.0869   -2.1773 C   0  0  0  0  0  0  0  0  0  0  0  0
   -2.3145    0.1470   -1.1732 N   0  0  0  0  0  0  0  0  0  0  0  0
   -0.9746   -0.0231   -1.2685 C   0  0  0  0  0  0  0  0  0  0  0  0
   -0.1659   -0.4303   -2.2842 N   0  0  0  0  0  0  0  0  0  0  0  0
    1.1070   -0.4260   -1.8526 C   0  0  0  0  0  0  0  0  0  0  0  0
    1.1900   -0.0298   -0.5790 N   0  0  0  0  0  0  0  0  0  0  0  0
    2.2880    0.1478    0.3403 C   0  0  0  0  0  0  0  0  0  0  0  0
    2.5416   -1.2355    1.1396 C   0  0  1  0  0  0  0  0  0  0  0  0
    2.8316   -2.0458   -0.0999 O   0  0  0  0  0  0  0  0  0  0  0  0
    4.1164   -0.9137    1.4482 C   0  0  0  0  0  0  0  0  0  0  0  0
    4.6804   -0.2581    0.4181 O   0  0  0  0  0  0  0  0  0  0  0  0
   -0.0863    0.2147   -0.2288 C   0  0  0  0  0  0  0  0  0  0  0  0
   -0.6858    0.6532    0.9537 C   0  0  0  0  0  0  0  0  0  0  0  0
    0.1066    0.8729    1.9052 O   0  0  0  0  0  0  0  0  0  0  0  0
   -2.0187    0.8201    1.0412 N   0  0  0  0  0  0  0  0  0  0  0  0
   -2.5375    1.2791    2.3149 C   0  0  0  0  0  0  0  0  0  0  0  0
   -2.8393    0.5720   -0.0088 C   0  0  0  0  0  0  0  0  0  0  0  0
   -4.1082    0.7425    0.1112 O   0  0  0  0  0  0  0  0  0  0  0  0
  1  2  1  0
  2  3  1  0
  3  4  1  0
  4  5  2  0
  5  6  1  0
  6  7  1  0
  7  8  1  0
  8  9  1  6
  8 10  1  0
 10 11  1  0
  6 12  1  0
 12 13  1  0
 13 14  2  0
 13 15  1  0
 15 16  1  0
 15 17  1  0
 17 18  2  0
 17  2  1  0
 12  3  2  0
M  END
>  <zinc_id>  (1) 
ZINC000000057147

>  <smiles>  (1) 
Cn1c(=O)c2c(ncn2C[C@@H](O)CO)n(C)c1=O

$$$$
