
     RDKit          3D

 18 19  0  0  0  0  0  0  0  0999 V2000
    3.8456   -2.1640    1.0844 C   0  0  0  0  0  0  0  0  0  0  0  0
    3.2868   -0.8699    1.1201 N   0  0  0  0  0  0  0  0  0  0  0  0
    3.2768   -0.1860    2.3549 C   0  0  0  0  0  0  0  0  0  0  0  0
    2.3669   -0.4975    0.1352 C   0  0  0  0  0  0  0  0  0  0  0  0
    1.0512   -1.1515    0.1244 C   0  0  0  0  0  0  0  0  0  0  0  0
    0.2408   -0.5297   -1.0921 C   0  0  2  0  0  0  0  0  0  0  0  0
    0.1719    0.9500   -0.6587 C   0  0  0  0  0  0  0  0  0  0  0  0
    1.2910    1.6812   -0.4416 C   0  0  0  0  0  0  0  0  0  0  0  0
    1.2876    3.0093   -0.0648 C   0  0  0  0  0  0  0  0  0  0  0  0
    0.0486    3.5991    0.0921 C   0  0  0  0  0  0  0  0  0  0  0  0
   -1.1157    2.8949   -0.1175 C   0  0  0  0  0  0  0  0  0  0  0  0
   -1.0333    1.5898   -0.4874 C   0  0  0  0  0  0  0  0  0  0  0  0
   -1.2014   -1.0082   -0.6213 C   0  0  0  0  0  0  0  0  0  0  0  0
   -2.1515   -1.0256   -1.6127 C   0  0  0  0  0  0  0  0  0  0  0  0
   -3.4296   -1.4139   -1.3246 C   0  0  0  0  0  0  0  0  0  0  0  0
   -3.7341   -1.7852   -0.0131 C   0  0  0  0  0  0  0  0  0  0  0  0
   -2.7207   -1.7407    0.9290 C   0  0  0  0  0  0  0  0  0  0  0  0
   -1.4809   -1.3519    0.5936 N   0  0  0  0  0  0  0  0  0  0  0  0
  1  2  1  0
  2  3  1  0
  2  4  1  0
  4  5  1  0
  6  5  1  1
  6  7  1  0
  7  8  2  0
  8  9  1  0
  9 10  2  0
 10 11  1  0
 11 12  2  0
  6 13  1  0
 13 14  2  0
 14 15  1  0
 15 16  2  0
 16 17  1  0
 17 18  2  0
 12  7  1  0
 18 13  1  0
M  END
>  <zinc_id>  (1) 
ZINC000000508068

>  <smiles>  (1) 
CN(C)CC[C@H](c1ccccc1)c1ccccn1

$$$$
