
     RDKit          3D

 26 28  0  0  0  0  0  0  0  0999 V2000
   -4.0213    1.9848    1.2058 C   0  0  0  0  0  0  0  0  0  0  0  0
   -3.5353    1.0358    1.0072 C   0  0  0  0  0  0  0  0  0  0  0  0
   -2.5474    0.4235    1.9120 C   0  0  0  0  0  0  0  0  0  0  0  0
   -4.3803   -0.2193    0.1859 C   0  0  1  0  0  0  0  0  0  0  0  0
   -5.6703    0.6317   -0.2827 C   0  0  0  0  0  0  0  0  0  0  0  0
   -6.5227   -0.0954   -0.9558 C   0  0  0  0  0  0  0  0  0  0  0  0
   -7.9852    0.7398   -1.5236 Cl  0  0  0  0  0  0  0  0  0  0  0  0
   -6.3012   -1.7950   -1.3132 Cl  0  0  0  0  0  0  0  0  0  0  0  0
   -3.2315    0.7654   -0.6661 C   0  0  2  0  0  0  0  0  0  0  0  0
   -1.9264   -0.1733   -0.6397 C   0  0  0  0  0  0  0  0  0  0  0  0
   -1.0206    0.4266   -1.2601 O   0  0  0  0  0  0  0  0  0  0  0  0
   -1.8026   -1.3367   -0.0897 O   0  0  0  0  0  0  0  0  0  0  0  0
   -0.6713   -2.1245   -0.0823 C   0  0  0  0  0  0  0  0  0  0  0  0
    0.5366   -1.6044    0.5319 C   0  0  0  0  0  0  0  0  0  0  0  0
    0.7051   -1.7077    1.8922 C   0  0  0  0  0  0  0  0  0  0  0  0
    1.8699   -1.2094    2.4425 C   0  0  0  0  0  0  0  0  0  0  0  0
    2.8520   -0.6197    1.6679 C   0  0  0  0  0  0  0  0  0  0  0  0
    2.6431   -0.5363    0.3067 C   0  0  0  0  0  0  0  0  0  0  0  0
    3.5878    0.0432   -0.5283 O   0  0  0  0  0  0  0  0  0  0  0  0
    4.7820    0.5703   -0.0817 C   0  0  0  0  0  0  0  0  0  0  0  0
    4.8864    1.8921    0.2935 C   0  0  0  0  0  0  0  0  0  0  0  0
    6.0985    2.4033    0.7405 C   0  0  0  0  0  0  0  0  0  0  0  0
    7.1924    1.5537    0.7984 C   0  0  0  0  0  0  0  0  0  0  0  0
    7.0878    0.2147    0.4185 C   0  0  0  0  0  0  0  0  0  0  0  0
    5.8772   -0.2415   -0.0136 C   0  0  0  0  0  0  0  0  0  0  0  0
    1.4974   -1.0218   -0.2683 C   0  0  0  0  0  0  0  0  0  0  0  0
  1  2  1  0
  2  3  1  0
  4  2  1  1
  4  5  1  0
  5  6  2  3
  6  7  1  0
  6  8  1  0
  4  9  1  0
  9 10  1  1
 10 11  2  0
 10 12  1  0
 12 13  1  0
 13 14  1  0
 14 15  2  0
 15 16  1  0
 16 17  2  0
 17 18  1  0
 18 19  1  0
 19 20  1  0
 20 21  2  0
 21 22  1  0
 22 23  2  0
 23 24  1  0
 24 25  2  0
 18 26  2  0
  9  2  1  0
 26 14  1  0
 25 20  1  0
M  END
>  <zinc_id>  (1) 
ZINC000002032615

>  <smiles>  (1) 
CC1(C)[C@@H](C(=O)OCc2cccc(Oc3ccccc3)c2)[C@@H]1C=C(Cl)Cl

$$$$
