
     RDKit          3D

 20 23  0  0  0  0  0  0  0  0999 V2000
   -1.0840    3.8273    0.3879 C   0  0  0  0  0  0  0  0  0  0  0  0
   -0.6352    2.9753   -0.0966 N   0  0  0  0  0  0  0  0  0  0  0  0
   -1.5139    2.0466   -0.7129 C   0  0  0  0  0  0  0  0  0  0  0  0
   -0.5817    0.7336   -0.9068 C   0  0  2  0  0  0  0  0  0  0  0  0
   -1.6656   -0.3810   -0.6058 C   0  0  0  0  0  0  0  0  0  0  0  0
   -2.9197    0.0227   -0.8531 C   0  0  0  0  0  0  0  0  0  0  0  0
   -3.9385   -0.8847   -0.6386 C   0  0  0  0  0  0  0  0  0  0  0  0
   -3.6421   -2.1631   -0.1824 C   0  0  0  0  0  0  0  0  0  0  0  0
   -2.3109   -2.5281    0.0591 C   0  0  0  0  0  0  0  0  0  0  0  0
   -1.2942   -1.6275   -0.1531 C   0  0  0  0  0  0  0  0  0  0  0  0
   -0.0083   -2.1362    0.1338 O   0  0  0  0  0  0  0  0  0  0  0  0
    1.1252   -1.3220    0.2454 C   0  0  0  0  0  0  0  0  0  0  0  0
    2.3136   -2.0379    0.0726 C   0  0  0  0  0  0  0  0  0  0  0  0
    3.4890   -1.3198    0.1643 C   0  0  0  0  0  0  0  0  0  0  0  0
    3.5505    0.0331    0.4114 C   0  0  0  0  0  0  0  0  0  0  0  0
    5.1035    0.8675    0.5114 Cl  0  0  0  0  0  0  0  0  0  0  0  0
    2.3561    0.7005    0.5757 C   0  0  0  0  0  0  0  0  0  0  0  0
    1.2117    0.0163    0.4893 C   0  0  0  0  0  0  0  0  0  0  0  0
   -0.0856    0.8573    0.7061 C   0  0  1  0  0  0  0  0  0  0  0  0
    0.5301    2.3200    0.3923 C   0  0  0  0  0  0  0  0  0  0  0  0
  1  2  1  0
  2  3  1  0
  4  3  1  1
  4  5  1  0
  5  6  2  0
  6  7  1  0
  7  8  2  0
  8  9  1  0
  9 10  2  0
 10 11  1  0
 11 12  1  0
 12 13  2  0
 13 14  1  0
 14 15  2  0
 15 16  1  0
 15 17  1  0
 17 18  2  0
 18 19  1  0
 19 20  1  6
 20  2  1  0
 19  4  1  0
 10  5  1  0
 18 12  1  0
M  END
>  <zinc_id>  (1) 
ZINC000000002299

>  <smiles>  (1) 
CN1C[C@@H]2c3ccccc3Oc3ccc(Cl)cc3[C@H]2C1

$$$$
