
     RDKit          3D

 20 21  0  0  0  0  0  0  0  0999 V2000
    1.1823    1.9474   -1.1059 N   0  0  0  0  0  0  0  0  0  0  0  0
    1.4079    0.5946   -0.7086 C   0  0  0  0  0  0  0  0  0  0  0  0
    2.6453   -0.0038   -0.8155 C   0  0  0  0  0  0  0  0  0  0  0  0
    3.7531    0.8080   -1.3604 C   0  0  0  0  0  0  0  0  0  0  0  0
    4.2679    1.7870   -0.3433 C   0  0  0  0  0  0  0  0  0  0  0  0
    3.7056    1.7778    0.7788 O   0  0  0  0  0  0  0  0  0  0  0  0
    5.2920    2.6520   -0.6001 O   0  0  0  0  0  0  0  0  0  0  0  0
    2.8589   -1.3053   -0.4313 C   0  0  0  0  0  0  0  0  0  0  0  0
    1.7704   -2.0159    0.0787 C   0  0  0  0  0  0  0  0  0  0  0  0
    0.5368   -1.4032    0.1802 C   0  0  0  0  0  0  0  0  0  0  0  0
    0.3363   -0.0955   -0.2095 C   0  0  0  0  0  0  0  0  0  0  0  0
   -0.9808    0.5377   -0.1005 C   0  0  0  0  0  0  0  0  0  0  0  0
   -1.1107    1.7307   -0.4835 O   0  0  0  0  0  0  0  0  0  0  0  0
   -2.1350   -0.1441    0.4261 C   0  0  0  0  0  0  0  0  0  0  0  0
   -2.1919   -1.5297    0.5648 C   0  0  0  0  0  0  0  0  0  0  0  0
   -3.3139   -2.1310    1.0731 C   0  0  0  0  0  0  0  0  0  0  0  0
   -4.4175   -1.4214    1.4653 C   0  0  0  0  0  0  0  0  0  0  0  0
   -5.9671   -2.3048    2.1727 Br  0  0  0  0  0  0  0  0  0  0  0  0
   -4.3885   -0.0429    1.3388 C   0  0  0  0  0  0  0  0  0  0  0  0
   -3.2512    0.5623    0.8234 C   0  0  0  0  0  0  0  0  0  0  0  0
  1  2  1  0
  2  3  2  0
  3  4  1  0
  4  5  1  0
  5  6  2  0
  5  7  1  0
  3  8  1  0
  8  9  2  0
  9 10  1  0
 10 11  2  0
 11 12  1  0
 12 13  2  0
 12 14  1  0
 14 15  2  0
 15 16  1  0
 16 17  2  0
 17 18  1  0
 17 19  1  0
 19 20  2  0
 11  2  1  0
 20 14  1  0
M  END
>  <zinc_id>  (1) 
ZINC000002570817

>  <smiles>  (1) 
Nc1c(CC(=O)O)cccc1C(=O)c1ccc(Br)cc1

$$$$
