
     RDKit          3D

 26 27  0  0  0  0  0  0  0  0999 V2000
    6.4822    0.4571   -1.9925 O   0  0  0  0  0  0  0  0  0  0  0  0
    7.1237    0.5278   -0.9239 C   0  0  0  0  0  0  0  0  0  0  0  0
    7.6900    1.7585   -0.6048 O   0  0  0  0  0  0  0  0  0  0  0  0
    7.2695   -0.6453   -0.0455 C   0  0  0  0  0  0  0  0  0  0  0  0
    6.5474   -1.8099   -0.6686 C   0  0  0  0  0  0  0  0  0  0  0  0
    5.1385   -1.4107   -0.7937 N   0  0  0  0  0  0  0  0  0  0  0  0
    4.3907   -1.0684    0.3525 C   0  0  0  0  0  0  0  0  0  0  0  0
    4.9323   -1.1063    1.4738 O   0  0  0  0  0  0  0  0  0  0  0  0
    3.0028   -0.6737    0.2432 C   0  0  0  0  0  0  0  0  0  0  0  0
    2.3477   -0.6139   -0.9833 C   0  0  0  0  0  0  0  0  0  0  0  0
    1.0273   -0.2377   -1.0817 C   0  0  0  0  0  0  0  0  0  0  0  0
    0.3045    0.0948    0.0410 C   0  0  0  0  0  0  0  0  0  0  0  0
   -1.0547    0.4751   -0.1246 N   0  0  0  0  0  0  0  0  0  0  0  0
   -1.9759    0.1069    0.6607 N   0  0  0  0  0  0  0  0  0  0  0  0
   -3.3019    0.5508    0.3945 C   0  0  0  0  0  0  0  0  0  0  0  0
   -3.5946    1.8735    0.1311 C   0  0  0  0  0  0  0  0  0  0  0  0
   -4.8714    2.3270   -0.1295 C   0  0  0  0  0  0  0  0  0  0  0  0
   -5.9215    1.4281   -0.1314 C   0  0  0  0  0  0  0  0  0  0  0  0
   -7.2204    1.8710   -0.3935 O   0  0  0  0  0  0  0  0  0  0  0  0
   -5.6682    0.0981    0.1275 C   0  0  0  0  0  0  0  0  0  0  0  0
   -6.7796   -0.8703    0.1283 C   0  0  0  0  0  0  0  0  0  0  0  0
   -6.5998   -2.0827    0.3569 O   0  0  0  0  0  0  0  0  0  0  0  0
   -8.0607   -0.4331   -0.1302 O   0  0  0  0  0  0  0  0  0  0  0  0
   -4.3800   -0.3284    0.3852 C   0  0  0  0  0  0  0  0  0  0  0  0
    0.9242    0.0456    1.2692 C   0  0  0  0  0  0  0  0  0  0  0  0
    2.2478   -0.3338    1.3463 C   0  0  0  0  0  0  0  0  0  0  0  0
  1  2  2  0
  2  3  1  0
  2  4  1  0
  4  5  1  0
  5  6  1  0
  6  7  1  0
  7  8  2  0
  7  9  1  0
  9 10  2  0
 10 11  1  0
 11 12  2  0
 12 13  1  0
 13 14  2  0
 14 15  1  0
 15 16  2  0
 16 17  1  0
 17 18  2  0
 18 19  1  0
 18 20  1  0
 20 21  1  0
 21 22  2  0
 21 23  1  0
 20 24  2  0
 12 25  1  0
 25 26  2  0
 26  9  1  0
 24 15  1  0
M  END
>  <zinc_id>  (1) 
ZINC000003952881

>  <smiles>  (1) 
O=C(O)CCNC(=O)c1ccc(/N=N/c2ccc(O)c(C(=O)O)c2)cc1

$$$$
