
     RDKit          3D

 24 26  0  0  0  0  0  0  0  0999 V2000
    4.4016    0.1884   -2.0217 C   0  0  0  0  0  0  0  0  0  0  0  0
    4.4149   -0.2493   -1.6002 N   0  0  0  0  0  0  0  0  0  0  0  0
    5.5664   -0.5869   -0.8830 C   0  0  0  0  0  0  0  0  0  0  0  0
    5.3214   -0.4468    0.5871 C   0  0  0  0  0  0  0  0  0  0  0  0
    3.9472   -1.0838    0.5845 C   0  0  0  0  0  0  0  0  0  0  0  0
    3.2964   -0.0528   -0.5297 C   0  0  2  0  0  0  0  0  0  0  0  0
    2.3569   -1.2552   -1.1711 C   0  0  0  0  0  0  0  0  0  0  0  0
    1.1313   -1.2826   -0.2738 C   0  0  0  0  0  0  0  0  0  0  0  0
    0.4623   -0.0754   -0.2822 O   0  0  0  0  0  0  0  0  0  0  0  0
   -0.6196   -0.1849    0.5556 C   0  0  2  0  0  0  0  0  0  0  0  0
   -0.2156   -0.5096    1.9848 C   0  0  0  0  0  0  0  0  0  0  0  0
   -1.5231   -1.2520    0.0484 C   0  0  0  0  0  0  0  0  0  0  0  0
   -2.6048   -1.5834    0.8349 C   0  0  0  0  0  0  0  0  0  0  0  0
   -3.4861   -2.5528    0.4389 C   0  0  0  0  0  0  0  0  0  0  0  0
   -3.3278   -3.2277   -0.7484 C   0  0  0  0  0  0  0  0  0  0  0  0
   -2.2373   -2.8870   -1.5315 C   0  0  0  0  0  0  0  0  0  0  0  0
   -1.3589   -1.9213   -1.1376 C   0  0  0  0  0  0  0  0  0  0  0  0
   -1.3380    1.1233    0.5547 C   0  0  0  0  0  0  0  0  0  0  0  0
   -1.5663    1.7909    1.7179 C   0  0  0  0  0  0  0  0  0  0  0  0
   -2.2376    3.0073    1.7281 C   0  0  0  0  0  0  0  0  0  0  0  0
   -2.6635    3.5151    0.5264 C   0  0  0  0  0  0  0  0  0  0  0  0
   -3.5138    5.0376    0.4642 Cl  0  0  0  0  0  0  0  0  0  0  0  0
   -2.4337    2.8379   -0.6714 C   0  0  0  0  0  0  0  0  0  0  0  0
   -1.7723    1.6510   -0.6260 C   0  0  0  0  0  0  0  0  0  0  0  0
  1  2  1  0
  2  3  1  0
  3  4  1  0
  4  5  1  0
  5  6  1  0
  6  7  1  6
  7  8  1  0
  8  9  1  0
  9 10  1  0
 10 11  1  1
 10 12  1  0
 12 13  2  0
 13 14  1  0
 14 15  2  0
 15 16  1  0
 16 17  2  0
 10 18  1  0
 18 19  2  0
 19 20  1  0
 20 21  2  0
 21 22  1  0
 21 23  1  0
 23 24  2  0
  6  2  1  0
 17 12  1  0
 24 18  1  0
M  END
>  <zinc_id>  (1) 
ZINC000000402830

>  <smiles>  (1) 
CN1CCC[C@@H]1CCO[C@](C)(c1ccccc1)c1ccc(Cl)cc1

$$$$
