
     RDKit          3D

 30 33  0  0  0  0  0  0  0  0999 V2000
    5.3260    3.7291    1.4131 C   0  0  0  0  0  0  0  0  0  0  0  0
    5.1395    2.6682    1.0611 O   0  0  0  0  0  0  0  0  0  0  0  0
    5.6212    1.8652    0.0590 C   0  0  0  0  0  0  0  0  0  0  0  0
    6.5670    2.3495   -0.7964 C   0  0  0  0  0  0  0  0  0  0  0  0
    7.0356    1.5174   -1.7987 C   0  0  0  0  0  0  0  0  0  0  0  0
    6.5656    0.2230   -1.9417 C   0  0  0  0  0  0  0  0  0  0  0  0
    5.6090   -0.2217   -1.0523 C   0  0  0  0  0  0  0  0  0  0  0  0
    5.1385    0.5835   -0.0627 C   0  0  0  0  0  0  0  0  0  0  0  0
    4.1840    0.1530    0.8318 O   0  0  0  0  0  0  0  0  0  0  0  0
    3.5976   -1.1107    0.8425 C   0  0  0  0  0  0  0  0  0  0  0  0
    2.6079   -1.2291    1.9515 C   0  0  0  0  0  0  0  0  0  0  0  0
    1.5172   -0.3070    1.9161 N   0  0  0  0  0  0  0  0  0  0  0  0
    0.5906   -0.5002    0.8518 C   0  0  0  0  0  0  0  0  0  0  0  0
   -0.2399   -1.8881    1.1332 C   0  0  2  0  0  0  0  0  0  0  0  0
    0.9797   -2.7850    1.0775 O   0  0  0  0  0  0  0  0  0  0  0  0
   -0.5716   -2.1092   -0.5023 C   0  0  0  0  0  0  0  0  0  0  0  0
   -1.7406   -1.2787   -0.5497 O   0  0  0  0  0  0  0  0  0  0  0  0
   -2.8580   -1.5730    0.2524 C   0  0  0  0  0  0  0  0  0  0  0  0
   -2.9059   -2.6335    1.1012 C   0  0  0  0  0  0  0  0  0  0  0  0
   -4.0223   -2.8580    1.8495 C   0  0  0  0  0  0  0  0  0  0  0  0
   -5.1144   -2.0309    1.7680 C   0  0  0  0  0  0  0  0  0  0  0  0
   -5.0473   -0.9573    0.8989 C   0  0  0  0  0  0  0  0  0  0  0  0
   -5.9368   -0.0143    0.6239 N   0  0  0  0  0  0  0  0  0  0  0  0
   -5.4707    0.8640   -0.2984 C   0  0  0  0  0  0  0  0  0  0  0  0
   -5.9717    1.9815   -0.9112 C   0  0  0  0  0  0  0  0  0  0  0  0
   -5.1657    2.6246   -1.8278 C   0  0  0  0  0  0  0  0  0  0  0  0
   -3.9089    2.1987   -2.1436 C   0  0  0  0  0  0  0  0  0  0  0  0
   -3.4104    1.0720   -1.5224 C   0  0  0  0  0  0  0  0  0  0  0  0
   -4.1866    0.3951   -0.5946 C   0  0  0  0  0  0  0  0  0  0  0  0
   -3.9286   -0.7280    0.1456 C   0  0  0  0  0  0  0  0  0  0  0  0
  1  2  1  0
  2  3  1  0
  3  4  2  0
  4  5  1  0
  5  6  2  0
  6  7  1  0
  7  8  2  0
  8  9  1  0
  9 10  1  0
 10 11  1  0
 11 12  1  0
 12 13  1  0
 13 14  1  0
 14 15  1  6
 14 16  1  0
 16 17  1  0
 17 18  1  0
 18 19  2  0
 19 20  1  0
 20 21  2  0
 21 22  1  0
 22 23  1  0
 23 24  1  0
 24 25  2  0
 25 26  1  0
 26 27  2  0
 27 28  1  0
 28 29  2  0
 29 30  1  0
  8  3  1  0
 30 18  1  0
 30 22  2  0
 29 24  1  0
M  END
>  <zinc_id>  (1) 
ZINC000001530579

>  <smiles>  (1) 
COc1ccccc1OCCNC[C@H](O)COc1cccc2[nH]c3ccccc3c12

$$$$
