
     RDKit          3D

 12 12  0  0  0  0  0  0  0  0999 V2000
   -1.4640    2.3150   -0.9452 C   0  0  0  0  0  0  0  0  0  0  0  0
   -1.7792    1.2182   -0.1266 C   0  0  0  0  0  0  0  0  0  0  0  0
   -0.9862   -0.0490   -0.7601 C   0  0  2  0  0  0  0  0  0  0  0  0
   -1.4921   -1.0887    0.2966 C   0  0  0  0  0  0  0  0  0  0  0  0
   -0.8222   -1.5034    1.4065 N   0  0  0  0  0  0  0  0  0  0  0  0
   -2.6161   -1.5353    0.0309 O   0  0  0  0  0  0  0  0  0  0  0  0
    0.3796    0.2416   -0.2132 N   0  0  0  0  0  0  0  0  0  0  0  0
    0.8263    1.4740    0.3333 C   0  0  0  0  0  0  0  0  0  0  0  0
    2.3349    1.4644    0.2779 C   0  0  0  0  0  0  0  0  0  0  0  0
    2.6872    0.0125    0.3601 C   0  0  0  0  0  0  0  0  0  0  0  0
    1.4502   -0.6588   -0.1649 C   0  0  0  0  0  0  0  0  0  0  0  0
    1.4818   -1.8906   -0.4954 O   0  0  0  0  0  0  0  0  0  0  0  0
  1  2  1  0
  3  2  1  1
  3  4  1  0
  4  5  1  0
  4  6  2  0
  3  7  1  0
  7  8  1  0
  8  9  1  0
  9 10  1  0
 10 11  1  0
 11 12  2  0
 11  7  1  0
M  END
>  <zinc_id>  (1) 
ZINC000003830990

>  <smiles>  (1) 
CC[C@H](C(N)=O)N1CCCC1=O

$$$$
