
     RDKit          3D

 36 38  0  0  0  0  0  0  0  0999 V2000
    2.7207   -3.5272   -1.9208 C   0  0  0  0  0  0  0  0  0  0  0  0
    2.9544   -3.4073   -1.7740 C   0  0  0  0  0  0  0  0  0  0  0  0
    3.1596   -2.1117   -1.1711 O   0  0  0  0  0  0  0  0  0  0  0  0
    2.3566   -1.6507   -0.1548 C   0  0  0  0  0  0  0  0  0  0  0  0
    1.4341   -2.3218    0.2705 O   0  0  0  0  0  0  0  0  0  0  0  0
    2.7422   -0.2229    0.3908 C   0  0  2  0  0  0  0  0  0  0  0  0
    3.7802   -0.8573    1.5670 C   0  0  0  0  0  0  0  0  0  0  0  0
    4.8831   -1.4790    0.8181 C   0  0  0  0  0  0  0  0  0  0  0  0
    5.8419   -0.5499    0.2211 C   0  0  0  0  0  0  0  0  0  0  0  0
    5.7296    0.1227   -0.9312 C   0  0  0  0  0  0  0  0  0  0  0  0
    6.6997    0.9879   -1.4570 C   0  0  0  0  0  0  0  0  0  0  0  0
    7.8484    1.1322   -0.6936 C   0  0  0  0  0  0  0  0  0  0  0  0
    8.0383    0.4638    0.5143 C   0  0  0  0  0  0  0  0  0  0  0  0
    7.0367   -0.3557    0.9373 C   0  0  0  0  0  0  0  0  0  0  0  0
    1.6681    0.0778    1.3877 N   0  0  0  0  0  0  0  0  0  0  0  0
    0.6947    1.1236    1.0907 C   0  0  1  0  0  0  0  0  0  0  0  0
    1.6015    2.4145    0.6974 C   0  0  0  0  0  0  0  0  0  0  0  0
   -0.1697    0.8807   -0.0948 C   0  0  0  0  0  0  0  0  0  0  0  0
    0.2210    0.2415   -1.1178 O   0  0  0  0  0  0  0  0  0  0  0  0
   -1.4686    1.3830   -0.0446 N   0  0  0  0  0  0  0  0  0  0  0  0
   -2.3820    0.9448   -1.1707 C   0  0  0  0  0  0  0  0  0  0  0  0
   -3.6357    0.3561   -0.5440 C   0  0  0  0  0  0  0  0  0  0  0  0
   -4.5760   -0.2253   -1.3495 C   0  0  0  0  0  0  0  0  0  0  0  0
   -5.7314   -0.7712   -0.7864 C   0  0  0  0  0  0  0  0  0  0  0  0
   -6.7173   -1.3714   -1.5394 O   0  0  0  0  0  0  0  0  0  0  0  0
   -6.7399   -1.5418   -2.9215 C   0  0  0  0  0  0  0  0  0  0  0  0
   -5.9420   -0.7335    0.5882 C   0  0  0  0  0  0  0  0  0  0  0  0
   -7.0713   -1.2741    1.1618 O   0  0  0  0  0  0  0  0  0  0  0  0
   -7.3535   -1.2849    2.5386 C   0  0  0  0  0  0  0  0  0  0  0  0
   -4.9796   -0.1397    1.3713 C   0  0  0  0  0  0  0  0  0  0  0  0
   -3.8296    0.4020    0.8077 C   0  0  0  0  0  0  0  0  0  0  0  0
   -2.8678    1.0360    1.7690 C   0  0  0  0  0  0  0  0  0  0  0  0
   -2.2519    2.2547    0.8013 C   0  0  1  0  0  0  0  0  0  0  0  0
   -1.4670    3.0312    1.8094 C   0  0  0  0  0  0  0  0  0  0  0  0
   -1.2621    4.2520    1.4011 O   0  0  0  0  0  0  0  0  0  0  0  0
   -0.9652    2.7208    3.0060 O   0  0  0  0  0  0  0  0  0  0  0  0
  1  2  1  0
  2  3  1  0
  3  4  1  0
  4  5  2  0
  4  6  1  0
  6  7  1  1
  7  8  1  0
  8  9  1  0
  9 10  2  0
 10 11  1  0
 11 12  2  0
 12 13  1  0
 13 14  2  0
  6 15  1  0
 15 16  1  0
 16 17  1  6
 16 18  1  0
 18 19  2  0
 18 20  1  0
 20 21  1  0
 21 22  1  0
 22 23  2  0
 23 24  1  0
 24 25  1  0
 25 26  1  0
 24 27  2  0
 27 28  1  0
 28 29  1  0
 27 30  1  0
 30 31  2  0
 31 32  1  0
 32 33  1  0
 33 34  1  1
 34 35  2  0
 34 36  1  0
 14  9  1  0
 33 20  1  0
 31 22  1  0
M  END
>  <zinc_id>  (1) 
ZINC000003812306

>  <smiles>  (1) 
CCOC(=O)[C@H](CCc1ccccc1)N[C@@H](C)C(=O)N1Cc2cc(OC)c(OC)cc2C[C@H]1C(=O)O

$$$$
