
     RDKit          3D

 22 24  0  0  0  0  0  0  0  0999 V2000
    0.0499   -0.3946    1.2713 O   0  0  0  0  0  0  0  0  0  0  0  0
   -0.4870   -0.2584    0.0732 C   0  0  2  0  0  0  0  0  0  0  0  0
    0.5548   -0.5499   -0.9425 C   0  0  0  0  0  0  0  0  0  0  0  0
    1.7463    0.3587   -0.8465 C   0  0  0  0  0  0  0  0  0  0  0  0
    2.3460    0.2001    0.4615 N   0  0  0  0  0  0  0  0  0  0  0  0
    2.9707   -1.0702    0.6305 C   0  0  0  0  0  0  0  0  0  0  0  0
    4.4677   -1.0919    0.5049 C   0  0  0  0  0  0  0  0  0  0  0  0
    4.8856    0.0747   -0.3705 C   0  0  0  0  0  0  0  0  0  0  0  0
    4.5234    1.3462    0.3589 C   0  0  0  0  0  0  0  0  0  0  0  0
    3.1210    1.3367    0.8730 C   0  0  0  0  0  0  0  0  0  0  0  0
   -1.0486    1.1027   -0.0200 C   0  0  0  0  0  0  0  0  0  0  0  0
   -2.3357    1.3124    0.4342 C   0  0  0  0  0  0  0  0  0  0  0  0
   -2.9478    2.5510    0.3891 C   0  0  0  0  0  0  0  0  0  0  0  0
   -2.2776    3.6450   -0.1243 C   0  0  0  0  0  0  0  0  0  0  0  0
   -0.9888    3.4436   -0.5806 C   0  0  0  0  0  0  0  0  0  0  0  0
   -0.3741    2.1912   -0.5329 C   0  0  0  0  0  0  0  0  0  0  0  0
   -1.6329   -1.2532    0.0337 C   0  0  0  0  0  0  0  0  0  0  0  0
   -2.3676   -1.2296   -1.2897 C   0  0  0  0  0  0  0  0  0  0  0  0
   -3.1400   -2.5352   -1.3983 C   0  0  0  0  0  0  0  0  0  0  0  0
   -3.5713   -3.0460   -0.0488 C   0  0  0  0  0  0  0  0  0  0  0  0
   -2.3510   -3.4889    0.7392 C   0  0  0  0  0  0  0  0  0  0  0  0
   -1.1432   -2.6443    0.3846 C   0  0  0  0  0  0  0  0  0  0  0  0
  2  1  1  1
  2  3  1  0
  3  4  1  0
  4  5  1  0
  5  6  1  0
  6  7  1  0
  7  8  1  0
  8  9  1  0
  9 10  1  0
  2 11  1  0
 11 12  2  0
 12 13  1  0
 13 14  2  0
 14 15  1  0
 15 16  2  0
  2 17  1  0
 17 18  1  0
 18 19  1  0
 19 20  1  0
 20 21  1  0
 21 22  1  0
 10  5  1  0
 16 11  1  0
 22 17  1  0
M  END
>  <zinc_id>  (1) 
ZINC000000968274

>  <smiles>  (1) 
O[C@](CCN1CCCCC1)(c1ccccc1)C1CCCCC1

$$$$
