
     RDKit          3D

 24 27  0  0  0  0  0  0  0  0999 V2000
   -5.5552    1.6084   -0.2331 C   0  0  0  0  0  0  0  0  0  0  0  0
   -4.3902    1.0493   -0.1001 C   0  0  0  0  0  0  0  0  0  0  0  0
   -4.4372   -0.5199   -0.3390 C   0  0  1  0  0  0  0  0  0  0  0  0
   -3.1190   -0.7185   -1.2193 C   0  0  0  0  0  0  0  0  0  0  0  0
   -1.9759   -0.9721   -0.5435 N   0  0  0  0  0  0  0  0  0  0  0  0
   -1.8372   -2.0340    0.3781 C   0  0  0  0  0  0  0  0  0  0  0  0
   -3.2050   -2.3513    0.7232 C   0  0  0  0  0  0  0  0  0  0  0  0
   -3.8769   -0.9589    1.1967 C   0  0  1  0  0  0  0  0  0  0  0  0
   -2.6375   -0.0186    1.4678 C   0  0  0  0  0  0  0  0  0  0  0  0
   -1.7784    0.3752    0.1827 C   0  0  1  0  0  0  0  0  0  0  0  0
   -0.2824   -0.0624    0.8495 C   0  0  2  0  0  0  0  0  0  0  0  0
   -0.1051    1.2619    1.5294 O   0  0  0  0  0  0  0  0  0  0  0  0
    0.5761    0.2178   -0.4518 C   0  0  0  0  0  0  0  0  0  0  0  0
   -0.0334    0.3915   -1.6763 C   0  0  0  0  0  0  0  0  0  0  0  0
    0.7814    0.5984   -2.7693 C   0  0  0  0  0  0  0  0  0  0  0  0
    2.1372    0.6301   -2.6422 N   0  0  0  0  0  0  0  0  0  0  0  0
    2.7060    0.4579   -1.4323 C   0  0  0  0  0  0  0  0  0  0  0  0
    4.0729    0.4809   -1.2283 C   0  0  0  0  0  0  0  0  0  0  0  0
    4.5921    0.2995    0.0450 C   0  0  0  0  0  0  0  0  0  0  0  0
    3.8061    0.0908    1.1623 C   0  0  0  0  0  0  0  0  0  0  0  0
    4.3862   -0.0874    2.4289 O   0  0  0  0  0  0  0  0  0  0  0  0
    5.7921   -0.0585    2.6006 C   0  0  0  0  0  0  0  0  0  0  0  0
    2.4464    0.0694    0.9470 C   0  0  0  0  0  0  0  0  0  0  0  0
    1.9366    0.2503   -0.3233 C   0  0  0  0  0  0  0  0  0  0  0  0
  1  2  2  0
  3  2  1  1
  3  4  1  0
  4  5  1  0
  5  6  1  0
  6  7  1  0
  8  7  1  6
  8  9  1  0
 10  9  1  1
 10 11  1  0
 11 12  1  1
 11 13  1  0
 13 14  2  0
 14 15  1  0
 15 16  2  0
 16 17  1  0
 17 18  2  0
 18 19  1  0
 19 20  2  0
 20 21  1  0
 21 22  1  0
 20 23  1  0
 23 24  2  0
  8  3  1  0
 24 13  1  0
 10  5  1  0
 24 17  1  0
M  END
>  <zinc_id>  (1) 
ZINC000003831404

>  <smiles>  (1) 
C=C[C@H]1CN2CC[C@H]1C[C@H]2[C@H](O)c1ccnc2ccc(OC)cc12

$$$$
