
     RDKit          3D

 17 18  0  0  0  0  0  0  0  0999 V2000
    5.4338    0.5693   -0.6478 C   0  0  0  0  0  0  0  0  0  0  0  0
    4.2230    0.2184   -1.2746 O   0  0  0  0  0  0  0  0  0  0  0  0
    2.9958    0.2322   -0.6352 C   0  0  0  0  0  0  0  0  0  0  0  0
    1.8910   -0.1316   -1.3728 C   0  0  0  0  0  0  0  0  0  0  0  0
    0.6291   -0.1434   -0.8239 C   0  0  0  0  0  0  0  0  0  0  0  0
    0.4332    0.2131    0.4934 C   0  0  0  0  0  0  0  0  0  0  0  0
   -0.9011    0.1654    1.0415 C   0  0  0  0  0  0  0  0  0  0  0  0
   -1.0363    0.4826    2.2738 O   0  0  0  0  0  0  0  0  0  0  0  0
   -2.0813   -0.2208    0.2785 C   0  0  0  0  0  0  0  0  0  0  0  0
   -2.1289   -0.0914   -1.0999 C   0  0  0  0  0  0  0  0  0  0  0  0
   -3.2350   -0.4792   -1.8442 C   0  0  0  0  0  0  0  0  0  0  0  0
   -4.3483   -1.0162   -1.2311 C   0  0  0  0  0  0  0  0  0  0  0  0
   -4.3084   -1.1493    0.1470 C   0  0  0  0  0  0  0  0  0  0  0  0
   -3.2038   -0.7624    0.8861 C   0  0  0  0  0  0  0  0  0  0  0  0
    1.5270    0.5867    1.2683 C   0  0  0  0  0  0  0  0  0  0  0  0
    1.3386    0.9467    2.5732 O   0  0  0  0  0  0  0  0  0  0  0  0
    2.7715    0.5797    0.6671 C   0  0  0  0  0  0  0  0  0  0  0  0
  1  2  1  0
  2  3  1  0
  3  4  2  0
  4  5  1  0
  5  6  2  0
  6  7  1  0
  7  8  2  0
  7  9  1  0
  9 10  2  0
 10 11  1  0
 11 12  2  0
 12 13  1  0
 13 14  2  0
  6 15  1  0
 15 16  1  0
 15 17  2  0
 17  3  1  0
 14  9  1  0
M  END
>  <zinc_id>  (1) 
ZINC000000136138

>  <smiles>  (1) 
COc1ccc(C(=O)c2ccccc2)c(O)c1

$$$$
