
     RDKit          3D

 11 11  0  0  0  0  0  0  0  0999 V2000
    2.9508   -1.5258   -0.3340 N   0  0  0  0  0  0  0  0  0  0  0  0
    1.9112   -0.5993   -0.1002 C   0  0  0  0  0  0  0  0  0  0  0  0
    2.1752    0.6857    0.2944 C   0  0  0  0  0  0  0  0  0  0  0  0
    1.0958    1.5276    0.5013 C   0  0  0  0  0  0  0  0  0  0  0  0
   -0.2085    1.1104    0.3229 C   0  0  0  0  0  0  0  0  0  0  0  0
   -1.2324    2.0481    0.5607 O   0  0  0  0  0  0  0  0  0  0  0  0
   -0.4758   -0.1744   -0.0717 C   0  0  0  0  0  0  0  0  0  0  0  0
   -1.8488   -0.5887   -0.2520 C   0  0  0  0  0  0  0  0  0  0  0  0
   -2.1149   -1.7743   -0.6169 O   0  0  0  0  0  0  0  0  0  0  0  0
   -2.8571    0.3080   -0.0258 O   0  0  0  0  0  0  0  0  0  0  0  0
    0.6045   -1.0173   -0.2788 C   0  0  0  0  0  0  0  0  0  0  0  0
  1  2  1  0
  2  3  2  0
  3  4  1  0
  4  5  2  0
  5  6  1  0
  5  7  1  0
  7  8  1  0
  8  9  2  0
  8 10  1  0
  7 11  2  0
 11  2  1  0
M  END
>  <zinc_id>  (1) 
ZINC000000001688

>  <smiles>  (1) 
Nc1ccc(O)c(C(=O)O)c1

$$$$
