
     RDKit          3D

 20 21  0  0  0  0  0  0  0  0999 V2000
    3.2151   -0.7893    0.7674 C   0  0  0  0  0  0  0  0  0  0  0  0
    2.8610   -0.9361    0.3161 N   0  0  0  0  0  0  0  0  0  0  0  0
    2.7539    0.0966   -0.9041 C   0  0  2  0  0  0  0  0  0  0  0  0
    4.2476    0.7664   -0.6169 C   0  0  0  0  0  0  0  0  0  0  0  0
    5.4063   -0.5733   -0.7877 Cl  0  0  0  0  0  0  0  0  0  0  0  0
    1.9944    1.1661    0.0093 N   0  0  0  0  0  0  0  0  0  0  0  0
    0.6094    0.9091    0.1076 C   0  0  0  0  0  0  0  0  0  0  0  0
   -0.3098    1.9325    0.1722 C   0  0  0  0  0  0  0  0  0  0  0  0
   -1.6609    1.6747    0.2687 C   0  0  0  0  0  0  0  0  0  0  0  0
   -2.7801    3.0086    0.3472 Cl  0  0  0  0  0  0  0  0  0  0  0  0
   -2.0940    0.3656    0.3007 C   0  0  0  0  0  0  0  0  0  0  0  0
   -3.8226    0.0772    0.4242 S   0  0  0  0  0  0  0  0  0  0  0  0
   -4.5745    0.8026   -0.9532 N   0  0  0  0  0  0  0  0  0  0  0  0
   -4.3176    0.6542    1.7110 O   0  0  0  0  0  0  0  0  0  0  0  0
   -4.0606   -1.4057    0.3830 O   0  0  0  0  0  0  0  0  0  0  0  0
   -1.2032   -0.6699    0.2381 C   0  0  0  0  0  0  0  0  0  0  0  0
    0.1440   -0.3791    0.1419 C   0  0  0  0  0  0  0  0  0  0  0  0
    1.2803   -1.7056    0.0612 S   0  0  0  0  0  0  0  0  0  0  0  0
    1.0720   -2.7150    1.1256 O   0  0  0  0  0  0  0  0  0  0  0  0
    1.2393   -2.2796   -1.3240 O   0  0  0  0  0  0  0  0  0  0  0  0
  1  2  1  0
  2  3  1  0
  3  4  1  1
  4  5  1  0
  3  6  1  0
  6  7  1  0
  7  8  2  0
  8  9  1  0
  9 10  1  0
  9 11  2  0
 11 12  1  0
 12 13  1  0
 12 14  2  0
 12 15  2  0
 11 16  1  0
 16 17  2  0
 17 18  1  0
 18 19  2  0
 18 20  2  0
 18  2  1  0
 17  7  1  0
M  END
>  <zinc_id>  (1) 
ZINC000000897232

>  <smiles>  (1) 
CN1[C@H](CCl)Nc2cc(Cl)c(S(N)(=O)=O)cc2S1(=O)=O

$$$$
