
     RDKit          3D

 33 35  0  0  0  0  0  0  0  0999 V2000
    6.0962   -2.8925    1.2848 C   0  0  0  0  0  0  0  0  0  0  0  0
    6.2577   -2.2728    1.2525 C   0  0  0  0  0  0  0  0  0  0  0  0
    6.2917   -0.9585    0.7879 O   0  0  0  0  0  0  0  0  0  0  0  0
    5.1314   -0.1563    0.7186 C   0  0  0  0  0  0  0  0  0  0  0  0
    3.8936   -0.6053    1.0878 C   0  0  0  0  0  0  0  0  0  0  0  0
    2.7537    0.2147    1.0118 C   0  0  0  0  0  0  0  0  0  0  0  0
    1.4549   -0.2691    1.4199 C   0  0  0  0  0  0  0  0  0  0  0  0
    0.3373    0.3018    0.5793 C   0  0  0  0  0  0  0  0  0  0  0  0
    0.4208    1.4576    0.1612 O   0  0  0  0  0  0  0  0  0  0  0  0
   -0.7033   -0.5986    0.3748 N   0  0  0  0  0  0  0  0  0  0  0  0
   -1.9678   -0.1579   -0.4692 C   0  0  1  0  0  0  0  0  0  0  0  0
   -2.4544   -1.6693   -0.7054 C   0  0  0  0  0  0  0  0  0  0  0  0
   -2.7513   -2.4568    0.4283 C   0  0  0  0  0  0  0  0  0  0  0  0
   -1.6390   -2.7296    1.3697 C   0  0  0  0  0  0  0  0  0  0  0  0
   -3.4303   -3.7559    0.0691 C   0  0  0  0  0  0  0  0  0  0  0  0
   -2.8639    0.2329    0.7531 C   0  0  0  0  0  0  0  0  0  0  0  0
   -2.4363    0.2262    2.0422 C   0  0  0  0  0  0  0  0  0  0  0  0
   -3.1786    0.7843    3.0829 C   0  0  0  0  0  0  0  0  0  0  0  0
   -4.3705    1.3492    2.7850 C   0  0  0  0  0  0  0  0  0  0  0  0
   -4.8353    1.3735    1.5116 C   0  0  0  0  0  0  0  0  0  0  0  0
   -4.0517    0.7936    0.4796 C   0  0  0  0  0  0  0  0  0  0  0  0
   -4.6841    0.7994   -0.7619 N   0  0  0  0  0  0  0  0  0  0  0  0
   -6.0475    0.2257   -0.7635 C   0  0  0  0  0  0  0  0  0  0  0  0
   -6.0725   -0.8752   -1.7842 C   0  0  0  0  0  0  0  0  0  0  0  0
   -5.9255   -0.1706   -3.1446 C   0  0  0  0  0  0  0  0  0  0  0  0
   -4.7076    0.6564   -3.2318 C   0  0  0  0  0  0  0  0  0  0  0  0
   -4.2038    1.2907   -1.9981 C   0  0  0  0  0  0  0  0  0  0  0  0
    2.9585    1.4853    0.5399 C   0  0  0  0  0  0  0  0  0  0  0  0
    4.2258    1.9435    0.1586 C   0  0  0  0  0  0  0  0  0  0  0  0
    5.3367    1.1215    0.2422 C   0  0  0  0  0  0  0  0  0  0  0  0
    6.6628    1.5770   -0.1390 C   0  0  0  0  0  0  0  0  0  0  0  0
    7.7116    0.8743   -0.0594 O   0  0  0  0  0  0  0  0  0  0  0  0
    6.7905    2.8608   -0.6272 O   0  0  0  0  0  0  0  0  0  0  0  0
  1  2  1  0
  2  3  1  0
  3  4  1  0
  4  5  2  0
  5  6  1  0
  6  7  1  0
  7  8  1  0
  8  9  2  0
  8 10  1  0
 10 11  1  0
 11 12  1  1
 12 13  1  0
 13 14  1  0
 13 15  1  0
 11 16  1  0
 16 17  2  0
 17 18  1  0
 18 19  2  0
 19 20  1  0
 20 21  2  0
 21 22  1  0
 22 23  1  0
 23 24  1  0
 24 25  1  0
 25 26  1  0
 26 27  1  0
  6 28  2  0
 28 29  1  0
 29 30  2  0
 30 31  1  0
 31 32  2  0
 31 33  1  0
 30  4  1  0
 21 16  1  0
 27 22  1  0
M  END
>  <zinc_id>  (1) 
ZINC000003798537

>  <smiles>  (1) 
CCOc1cc(CC(=O)N[C@@H](CC(C)C)c2ccccc2N2CCCCC2)ccc1C(=O)O

$$$$
