
     RDKit          3D

 25 29  0  0  0  0  0  0  0  0999 V2000
   -4.5011   -0.0932   -2.6456 C   0  0  0  0  0  0  0  0  0  0  0  0
   -4.3257   -0.0823   -1.5180 C   0  0  0  0  0  0  0  0  0  0  0  0
   -4.1029   -0.0566   -0.0707 C   0  0  2  0  0  0  0  0  0  0  0  0
   -5.0106   -0.8636    0.6158 O   0  0  0  0  0  0  0  0  0  0  0  0
   -4.2460    1.3406    0.5017 C   0  0  0  0  0  0  0  0  0  0  0  0
   -2.8774    1.7024    1.1043 C   0  0  0  0  0  0  0  0  0  0  0  0
   -2.0193    0.9635   -0.0612 C   0  0  1  0  0  0  0  0  0  0  0  0
   -0.6643    0.6887    0.9092 C   0  0  2  0  0  0  0  0  0  0  0  0
   -0.0051    2.0993    0.5625 C   0  0  0  0  0  0  0  0  0  0  0  0
    1.2774    2.0465    1.3856 C   0  0  0  0  0  0  0  0  0  0  0  0
    2.0942    0.9270    0.7029 C   0  0  0  0  0  0  0  0  0  0  0  0
    3.3247    1.1540    0.4396 C   0  0  0  0  0  0  0  0  0  0  0  0
    4.2542    0.2472   -0.2049 C   0  0  0  0  0  0  0  0  0  0  0  0
    5.5101    0.2343   -0.5556 O   0  0  0  0  0  0  0  0  0  0  0  0
    5.8364   -0.8891   -1.1152 N   0  0  0  0  0  0  0  0  0  0  0  0
    4.7588   -1.6867   -1.1536 C   0  0  0  0  0  0  0  0  0  0  0  0
    3.7039   -0.9642   -0.5635 C   0  0  0  0  0  0  0  0  0  0  0  0
    2.2822   -1.2663   -0.3691 C   0  0  0  0  0  0  0  0  0  0  0  0
    1.5071   -0.3462    0.4464 C   0  0  1  0  0  0  0  0  0  0  0  0
    1.1297   -1.0399    1.7244 C   0  0  0  0  0  0  0  0  0  0  0  0
    0.1079   -0.0968   -0.4063 C   0  0  1  0  0  0  0  0  0  0  0  0
   -0.5812   -1.5246   -0.0258 C   0  0  0  0  0  0  0  0  0  0  0  0
   -2.0202   -1.4316   -0.4889 C   0  0  0  0  0  0  0  0  0  0  0  0
   -2.7202   -0.4583    0.3237 C   0  0  2  0  0  0  0  0  0  0  0  0
   -2.7124   -0.6040    1.8012 C   0  0  0  0  0  0  0  0  0  0  0  0
  1  2  3  0
  2  3  1  0
  3  4  1  1
  3  5  1  0
  5  6  1  0
  7  6  1  1
  7  8  1  0
  8  9  1  6
  9 10  1  0
 10 11  1  0
 11 12  2  0
 12 13  1  0
 13 14  1  0
 14 15  1  0
 15 16  2  0
 16 17  1  0
 17 18  1  0
 18 19  1  0
 19 20  1  1
 19 21  1  0
 21 22  1  1
 22 23  1  0
 23 24  1  0
 24 25  1  1
 24  3  1  0
 24  7  1  0
 21  8  1  0
 19 11  1  0
 17 13  2  0
M  END
>  <zinc_id>  (1) 
ZINC000003881958

>  <smiles>  (1) 
C#C[C@]1(O)CC[C@H]2[C@@H]3CCC4=Cc5oncc5C[C@]4(C)[C@H]3CC[C@@]21C

$$$$
