
     RDKit          3D

 25 25  0  0  0  0  0  0  0  0999 V2000
    5.1855   -1.6339   -0.5717 C   0  0  0  0  0  0  0  0  0  0  0  0
    5.9149   -1.3754    0.6325 C   0  0  0  0  0  0  0  0  0  0  0  0
    5.0662   -1.3476    1.8781 C   0  0  0  0  0  0  0  0  0  0  0  0
    4.0035   -0.3342    1.8989 C   0  0  0  0  0  0  0  0  0  0  0  0
    4.6140    1.0017    1.7749 C   0  0  0  0  0  0  0  0  0  0  0  0
    3.4276    2.1411    1.8000 C   0  0  2  0  0  0  0  0  0  0  0  0
    2.9458    1.7190    3.1842 O   0  0  0  0  0  0  0  0  0  0  0  0
    2.2813    1.2697    1.0400 C   0  0  0  0  0  0  0  0  0  0  0  0
    1.8952    1.6983   -0.0888 C   0  0  0  0  0  0  0  0  0  0  0  0
    0.8155    1.0392   -0.9980 C   0  0  1  0  0  0  0  0  0  0  0  0
    1.8827    0.0179   -1.8325 C   0  0  2  0  0  0  0  0  0  0  0  0
    1.9595    0.9349   -3.0407 O   0  0  0  0  0  0  0  0  0  0  0  0
    0.5623   -0.7877   -2.4536 C   0  0  0  0  0  0  0  0  0  0  0  0
   -0.1410   -1.1240   -1.2136 C   0  0  0  0  0  0  0  0  0  0  0  0
   -1.0220   -1.9450   -1.1566 O   0  0  0  0  0  0  0  0  0  0  0  0
    0.4209   -0.2793   -0.0283 C   0  0  2  0  0  0  0  0  0  0  0  0
   -0.9633    0.3456    0.4921 C   0  0  0  0  0  0  0  0  0  0  0  0
   -1.8821    0.6129   -0.5812 C   0  0  0  0  0  0  0  0  0  0  0  0
   -3.1620    0.2392   -0.6033 C   0  0  0  0  0  0  0  0  0  0  0  0
   -3.7661   -0.5212    0.5487 C   0  0  0  0  0  0  0  0  0  0  0  0
   -4.9056    0.3663    1.0705 C   0  0  0  0  0  0  0  0  0  0  0  0
   -5.8208    0.5041   -0.1316 C   0  0  0  0  0  0  0  0  0  0  0  0
   -6.2401   -0.8779   -0.4677 C   0  0  0  0  0  0  0  0  0  0  0  0
   -5.5316   -1.7462   -1.0142 O   0  0  0  0  0  0  0  0  0  0  0  0
   -7.5403   -1.2192   -0.1380 O   0  0  0  0  0  0  0  0  0  0  0  0
  1  2  1  0
  2  3  1  0
  3  4  1  0
  4  5  1  0
  5  6  1  0
  6  7  1  1
  6  8  1  0
  8  9  2  0
 10  9  1  1
 10 11  1  0
 11 12  1  6
 11 13  1  0
 13 14  1  0
 14 15  2  0
 14 16  1  0
 16 17  1  1
 17 18  1  0
 18 19  2  0
 19 20  1  0
 20 21  1  0
 21 22  1  0
 22 23  1  0
 23 24  2  0
 23 25  1  0
 16 10  1  0
M  END
>  <zinc_id>  (1) 
ZINC000003830713

>  <smiles>  (1) 
CCCCC[C@H](O)/C=C/[C@H]1[C@H](O)CC(=O)[C@@H]1C/C=C\CCCC(=O)O

$$$$
