
     RDKit          3D

 25 27  0  0  0  0  0  0  0  0999 V2000
   -2.6426    1.6042    1.3182 F   0  0  0  0  0  0  0  0  0  0  0  0
   -3.2914    0.5449    0.8111 C   0  0  0  0  0  0  0  0  0  0  0  0
   -4.6494    0.5425    1.0040 C   0  0  0  0  0  0  0  0  0  0  0  0
   -5.4079   -0.5656    0.6426 C   0  0  0  0  0  0  0  0  0  0  0  0
   -4.7517   -1.6418    0.0930 C   0  0  0  0  0  0  0  0  0  0  0  0
   -3.4206   -1.6127   -0.0870 C   0  0  0  0  0  0  0  0  0  0  0  0
   -2.6274   -0.4918    0.2717 C   0  0  0  0  0  0  0  0  0  0  0  0
   -1.2485   -0.5983   -0.1391 C   0  0  0  0  0  0  0  0  0  0  0  0
   -0.8936   -1.8267   -0.4486 N   0  0  0  0  0  0  0  0  0  0  0  0
    0.3714   -2.3965   -0.8975 C   0  0  0  0  0  0  0  0  0  0  0  0
    1.4702   -1.9210    0.0418 C   0  0  0  0  0  0  0  0  0  0  0  0
    2.2112   -3.1054    0.8608 S   0  0  0  0  0  0  0  0  0  0  0  0
    1.8682   -0.5769    0.2623 N   0  0  0  0  0  0  0  0  0  0  0  0
    3.1019   -0.2595    0.8299 C   0  0  0  0  0  0  0  0  0  0  0  0
    4.3514   -0.4539    0.0819 C   0  0  0  0  0  0  0  0  0  0  0  0
    4.6570   -1.7215   -0.3379 F   0  0  0  0  0  0  0  0  0  0  0  0
    4.5060    0.3920   -0.9987 F   0  0  0  0  0  0  0  0  0  0  0  0
    5.4058   -0.1017    0.9485 F   0  0  0  0  0  0  0  0  0  0  0  0
    1.0374    0.5424   -0.1236 C   0  0  0  0  0  0  0  0  0  0  0  0
    1.7323    1.6941   -0.3817 C   0  0  0  0  0  0  0  0  0  0  0  0
    1.0520    2.8005   -0.8417 C   0  0  0  0  0  0  0  0  0  0  0  0
   -0.3173    2.7763   -1.0489 C   0  0  0  0  0  0  0  0  0  0  0  0
   -1.1348    4.2270   -1.6429 Cl  0  0  0  0  0  0  0  0  0  0  0  0
   -1.0245    1.6244   -0.7900 C   0  0  0  0  0  0  0  0  0  0  0  0
   -0.3553    0.5250   -0.3328 C   0  0  0  0  0  0  0  0  0  0  0  0
  1  2  1  0
  2  3  2  0
  3  4  1  0
  4  5  2  0
  5  6  1  0
  6  7  2  0
  7  8  1  0
  8  9  2  0
  9 10  1  0
 10 11  1  0
 11 12  2  0
 11 13  1  0
 13 14  1  0
 14 15  1  0
 15 16  1  0
 15 17  1  0
 15 18  1  0
 13 19  1  0
 19 20  2  0
 20 21  1  0
 21 22  2  0
 22 23  1  0
 22 24  1  0
 24 25  2  0
  7  2  1  0
 25  8  1  0
 25 19  1  0
M  END
>  <zinc_id>  (1) 
ZINC000000538266

>  <smiles>  (1) 
Fc1ccccc1C1=NCC(=S)N(CC(F)(F)F)c2ccc(Cl)cc21

$$$$
