
     RDKit          3D

 21 22  0  0  0  0  0  0  0  0999 V2000
    4.4281    2.1568   -0.6552 C   0  0  0  0  0  0  0  0  0  0  0  0
    3.6826    0.9691   -0.7701 O   0  0  0  0  0  0  0  0  0  0  0  0
    2.3412    1.0016   -0.4011 C   0  0  0  0  0  0  0  0  0  0  0  0
    1.7441    2.1694    0.0691 C   0  0  0  0  0  0  0  0  0  0  0  0
    0.4145    2.1498    0.4209 C   0  0  0  0  0  0  0  0  0  0  0  0
   -0.1964    3.2927    0.8880 O   0  0  0  0  0  0  0  0  0  0  0  0
   -0.3656    1.0021    0.3261 C   0  0  0  0  0  0  0  0  0  0  0  0
   -1.7576    1.0541    0.7166 C   0  0  0  0  0  0  0  0  0  0  0  0
   -2.3171    2.0906    1.1519 O   0  0  0  0  0  0  0  0  0  0  0  0
   -2.5648   -0.1436    0.6071 C   0  0  0  0  0  0  0  0  0  0  0  0
   -3.6804   -0.3649    1.3902 C   0  0  0  0  0  0  0  0  0  0  0  0
   -4.4618   -1.4970    1.2948 C   0  0  0  0  0  0  0  0  0  0  0  0
   -4.1332   -2.4740    0.3774 C   0  0  0  0  0  0  0  0  0  0  0  0
   -3.0205   -2.2598   -0.4079 C   0  0  0  0  0  0  0  0  0  0  0  0
   -2.2478   -1.1224   -0.3018 C   0  0  0  0  0  0  0  0  0  0  0  0
    0.2515   -0.1361   -0.1414 C   0  0  0  0  0  0  0  0  0  0  0  0
    1.5827   -0.1539   -0.5037 C   0  0  0  0  0  0  0  0  0  0  0  0
    2.3699   -1.5954   -1.0969 S   0  0  0  0  0  0  0  0  0  0  0  0
    1.3593   -2.7046   -1.1797 O   0  0  0  0  0  0  0  0  0  0  0  0
    2.9165   -1.3968   -2.4804 O   0  0  0  0  0  0  0  0  0  0  0  0
    3.6549   -2.0378   -0.1098 O   0  0  0  0  0  0  0  0  0  0  0  0
  1  2  1  0
  2  3  1  0
  3  4  2  0
  4  5  1  0
  5  6  1  0
  5  7  2  0
  7  8  1  0
  8  9  2  0
  8 10  1  0
 10 11  2  0
 11 12  1  0
 12 13  2  0
 13 14  1  0
 14 15  2  0
  7 16  1  0
 16 17  2  0
 17 18  1  0
 18 19  2  0
 18 20  2  0
 18 21  1  0
 17  3  1  0
 15 10  1  0
M  END
>  <zinc_id>  (1) 
ZINC000001690324

>  <smiles>  (1) 
COc1cc(O)c(C(=O)c2ccccc2)cc1S(=O)(=O)O

$$$$
