
     RDKit          3D

 27 29  0  0  0  0  0  0  0  0999 V2000
    6.2427   -0.8689   -1.4087 O   0  0  0  0  0  0  0  0  0  0  0  0
    6.4446   -0.5084   -0.7978 C   0  0  0  0  0  0  0  0  0  0  0  0
    6.9651    0.8000   -0.9058 O   0  0  0  0  0  0  0  0  0  0  0  0
    6.2785   -1.2078    0.5091 C   0  0  0  0  0  0  0  0  0  0  0  0
    4.8234   -1.6095    0.6294 C   0  0  0  0  0  0  0  0  0  0  0  0
    4.0511   -0.2947    0.5867 C   0  0  0  0  0  0  0  0  0  0  0  0
    2.6294   -0.5000    0.6899 N   0  0  0  0  0  0  0  0  0  0  0  0
    2.0078    0.8020    0.6862 C   0  0  0  0  0  0  0  0  0  0  0  0
    1.4653    1.2406   -0.6265 C   0  0  0  0  0  0  0  0  0  0  0  0
    0.4740    0.2742   -1.1713 C   0  0  0  0  0  0  0  0  0  0  0  0
   -0.8227    0.6360   -1.1519 O   0  0  0  0  0  0  0  0  0  0  0  0
   -1.2648    0.8896    0.2622 C   0  0  1  0  0  0  0  0  0  0  0  0
   -2.7471    1.3522   -0.0496 C   0  0  0  0  0  0  0  0  0  0  0  0
   -3.1674    2.4169    0.6999 C   0  0  0  0  0  0  0  0  0  0  0  0
   -4.4570    2.9476    0.5308 C   0  0  0  0  0  0  0  0  0  0  0  0
   -5.2623    2.3506   -0.4126 C   0  0  0  0  0  0  0  0  0  0  0  0
   -6.8894    3.0092   -0.6462 Cl  0  0  0  0  0  0  0  0  0  0  0  0
   -4.8178    1.2899   -1.1471 C   0  0  0  0  0  0  0  0  0  0  0  0
   -3.5533    0.8173   -0.9370 C   0  0  0  0  0  0  0  0  0  0  0  0
   -1.6300   -0.6405    0.5763 C   0  0  0  0  0  0  0  0  0  0  0  0
   -1.1896   -1.1271    1.7858 C   0  0  0  0  0  0  0  0  0  0  0  0
   -1.4902   -2.4358    2.1074 C   0  0  0  0  0  0  0  0  0  0  0  0
   -2.2065   -3.1746    1.2071 C   0  0  0  0  0  0  0  0  0  0  0  0
   -2.6253   -2.6491    0.0141 C   0  0  0  0  0  0  0  0  0  0  0  0
   -2.3053   -1.3703   -0.2469 N   0  0  0  0  0  0  0  0  0  0  0  0
    0.8167   -1.1217   -0.8488 C   0  0  0  0  0  0  0  0  0  0  0  0
    2.2299   -1.3175   -0.4308 C   0  0  0  0  0  0  0  0  0  0  0  0
  1  2  2  0
  2  3  1  0
  2  4  1  0
  4  5  1  0
  5  6  1  0
  6  7  1  0
  7  8  1  0
  8  9  1  0
  9 10  1  0
 10 11  1  0
 12 11  1  6
 12 13  1  0
 13 14  2  0
 14 15  1  0
 15 16  2  0
 16 17  1  0
 16 18  1  0
 18 19  2  0
 12 20  1  0
 20 21  2  0
 21 22  1  0
 22 23  2  0
 23 24  1  0
 24 25  2  0
 10 26  1  0
 26 27  1  0
 27  7  1  0
 19 13  1  0
 25 20  1  0
M  END
>  <zinc_id>  (1) 
ZINC000000602128

>  <smiles>  (1) 
O=C(O)CCCN1CCC(O[C@@H](c2ccc(Cl)cc2)c2ccccn2)CC1

$$$$
