
     RDKit          3D

 19 19  0  0  0  0  0  0  0  0999 V2000
   -1.4964    3.6276   -0.3475 C   0  0  0  0  0  0  0  0  0  0  0  0
   -0.3267    2.4815   -0.3412 C   0  0  0  0  0  0  0  0  0  0  0  0
    0.2994    2.8445   -1.7569 C   0  0  0  0  0  0  0  0  0  0  0  0
   -1.2033    1.2002   -0.5829 C   0  0  0  0  0  0  0  0  0  0  0  0
   -2.1395    1.1731   -1.5501 C   0  0  0  0  0  0  0  0  0  0  0  0
   -2.9755    0.0261   -1.6609 C   0  0  0  0  0  0  0  0  0  0  0  0
   -2.7969   -1.0153   -0.7729 C   0  0  0  0  0  0  0  0  0  0  0  0
   -1.8020   -0.9355    0.2096 C   0  0  0  0  0  0  0  0  0  0  0  0
   -1.5923   -1.9610    1.3185 C   0  0  0  0  0  0  0  0  0  0  0  0
   -3.0147   -2.5614    1.7066 C   0  0  0  0  0  0  0  0  0  0  0  0
   -0.5892   -3.0019    1.0887 C   0  0  0  0  0  0  0  0  0  0  0  0
   -1.0298    0.1823    0.2705 C   0  0  0  0  0  0  0  0  0  0  0  0
   -0.0655    0.2515    1.2405 O   0  0  0  0  0  0  0  0  0  0  0  0
    1.2327   -0.2158    1.0401 C   0  0  0  0  0  0  0  0  0  0  0  0
    1.9762    0.3476    0.0599 O   0  0  0  0  0  0  0  0  0  0  0  0
    3.4700   -0.4239   -0.0424 P   0  0  0  0  0  0  0  0  0  0  0  0
    3.5061   -1.5618   -1.0009 O   0  0  0  0  0  0  0  0  0  0  0  0
    4.7420    0.6505   -0.3878 O   0  0  0  0  0  0  0  0  0  0  0  0
    3.8055   -1.1082    1.5091 O   0  0  0  0  0  0  0  0  0  0  0  0
  1  2  1  0
  2  3  1  0
  2  4  1  0
  4  5  2  0
  5  6  1  0
  6  7  2  0
  7  8  1  0
  8  9  1  0
  9 10  1  0
  9 11  1  0
  8 12  2  0
 12 13  1  0
 13 14  1  0
 14 15  1  0
 15 16  1  0
 16 17  2  0
 16 18  1  0
 16 19  1  0
 12  4  1  0
M  END
>  <zinc_id>  (1) 
ZINC000002519740

>  <smiles>  (1) 
CC(C)c1cccc(C(C)C)c1OCOP(=O)(O)O

$$$$
