
     RDKit          3D

 18 19  0  0  0  0  0  0  0  0999 V2000
   -3.5580    0.3398   -1.8497 C   0  0  0  0  0  0  0  0  0  0  0  0
   -3.1760    0.6981   -0.8946 C   0  0  0  0  0  0  0  0  0  0  0  0
   -2.0184    0.2188   -0.2480 N   0  0  0  0  0  0  0  0  0  0  0  0
   -2.1072   -1.0526    0.4198 C   0  0  0  0  0  0  0  0  0  0  0  0
   -1.8244   -2.2163   -0.5225 C   0  0  0  0  0  0  0  0  0  0  0  0
   -0.7810    0.9733   -0.3260 C   0  0  0  0  0  0  0  0  0  0  0  0
   -0.8940    2.0545   -1.0037 O   0  0  0  0  0  0  0  0  0  0  0  0
    0.4044    0.6059    0.2624 C   0  0  1  0  0  0  0  0  0  0  0  0
    1.2152   -0.6288    0.0783 C   0  0  0  0  0  0  0  0  0  0  0  0
    1.6677   -1.4656    1.0615 C   0  0  0  0  0  0  0  0  0  0  0  0
    2.4973   -2.5237    0.7455 C   0  0  0  0  0  0  0  0  0  0  0  0
    2.8678   -2.7388   -0.5594 C   0  0  0  0  0  0  0  0  0  0  0  0
    2.4362   -1.9195   -1.5902 C   0  0  0  0  0  0  0  0  0  0  0  0
    1.6216   -0.8925   -1.2055 C   0  0  0  0  0  0  0  0  0  0  0  0
    1.5140    1.7337    0.5079 C   0  0  0  0  0  0  0  0  0  0  0  0
    0.6810    1.1209    1.8396 C   0  0  1  0  0  0  0  0  0  0  0  0
   -0.3536    2.3001    2.0610 C   0  0  0  0  0  0  0  0  0  0  0  0
   -0.1928    3.3926    1.2236 N   0  0  0  0  0  0  0  0  0  0  0  0
  1  2  1  0
  2  3  1  0
  3  4  1  0
  4  5  1  0
  3  6  1  0
  6  7  2  0
  8  6  1  6
  8  9  1  0
  9 10  2  0
 10 11  1  0
 11 12  2  0
 12 13  1  0
 13 14  2  0
  8 15  1  0
 15 16  1  0
 16 17  1  6
 17 18  1  0
 16  8  1  0
 14  9  1  0
M  END
>  <zinc_id>  (1) 
ZINC000000000506

>  <smiles>  (1) 
CCN(CC)C(=O)[C@@]1(c2ccccc2)C[C@H]1CN

$$$$
