
     RDKit          3D

 39 38  0  0  0  0  0  0  0  0999 V2000
    7.3164   -2.0591   -2.1875 C   0  0  0  0  0  0  0  0  0  0  0  0
    8.4143   -1.8896   -1.2251 C   0  0  0  0  0  0  0  0  0  0  0  0
    8.7846   -2.8838   -0.5552 O   0  0  0  0  0  0  0  0  0  0  0  0
    9.0755   -0.6268   -1.0268 N   0  0  0  0  0  0  0  0  0  0  0  0
   10.0770   -0.5523   -0.1228 O   0  0  0  0  0  0  0  0  0  0  0  0
    8.6995    0.4884   -1.8121 C   0  0  0  0  0  0  0  0  0  0  0  0
    7.6136    1.3213   -1.3273 C   0  0  0  0  0  0  0  0  0  0  0  0
    7.7881    1.9636   -0.0216 C   0  0  0  0  0  0  0  0  0  0  0  0
    7.9191    1.0026    1.0999 C   0  0  0  0  0  0  0  0  0  0  0  0
    8.0934    1.7620    2.3927 C   0  0  0  0  0  0  0  0  0  0  0  0
    6.9137    2.5933    2.5663 N   0  0  0  0  0  0  0  0  0  0  0  0
    5.6275    1.9684    2.6500 C   0  0  0  0  0  0  0  0  0  0  0  0
    5.5844    0.7241    2.5684 O   0  0  0  0  0  0  0  0  0  0  0  0
    4.4161    2.7752    2.8250 C   0  0  0  0  0  0  0  0  0  0  0  0
    3.1593    1.9807    2.8437 C   0  0  0  0  0  0  0  0  0  0  0  0
    2.8834    1.2184    1.6083 C   0  0  0  0  0  0  0  0  0  0  0  0
    3.6114    1.3036    0.5893 O   0  0  0  0  0  0  0  0  0  0  0  0
    1.7599    0.3630    1.5698 N   0  0  0  0  0  0  0  0  0  0  0  0
    0.9622    0.2589    2.6627 O   0  0  0  0  0  0  0  0  0  0  0  0
    1.4783   -0.3851    0.3723 C   0  0  0  0  0  0  0  0  0  0  0  0
    0.5791    0.3629   -0.5868 C   0  0  0  0  0  0  0  0  0  0  0  0
   -0.7584    0.6904    0.0467 C   0  0  0  0  0  0  0  0  0  0  0  0
   -1.4566   -0.5952    0.4547 C   0  0  0  0  0  0  0  0  0  0  0  0
   -1.6969   -1.4887   -0.7353 C   0  0  0  0  0  0  0  0  0  0  0  0
   -2.5264   -0.8529   -1.7380 N   0  0  0  0  0  0  0  0  0  0  0  0
   -3.8538   -0.4317   -1.3882 C   0  0  0  0  0  0  0  0  0  0  0  0
   -4.2146   -0.6471   -0.2120 O   0  0  0  0  0  0  0  0  0  0  0  0
   -4.7496    0.2182   -2.3504 C   0  0  0  0  0  0  0  0  0  0  0  0
   -6.0989    0.4831   -1.7691 C   0  0  0  0  0  0  0  0  0  0  0  0
   -6.7723   -0.7802   -1.3744 C   0  0  0  0  0  0  0  0  0  0  0  0
   -6.3134   -1.9176   -1.6304 O   0  0  0  0  0  0  0  0  0  0  0  0
   -8.0015   -0.6964   -0.6711 N   0  0  0  0  0  0  0  0  0  0  0  0
   -8.6519   -1.8068   -0.2922 O   0  0  0  0  0  0  0  0  0  0  0  0
   -8.6125    0.5825   -0.3288 C   0  0  0  0  0  0  0  0  0  0  0  0
   -9.5468    1.0427   -1.4455 C   0  0  0  0  0  0  0  0  0  0  0  0
  -10.6122   -0.0294   -1.5940 C   0  0  0  0  0  0  0  0  0  0  0  0
  -11.3421   -0.1430   -0.2615 C   0  0  0  0  0  0  0  0  0  0  0  0
  -12.4007   -1.2087   -0.4101 C   0  0  0  0  0  0  0  0  0  0  0  0
  -13.1480   -1.3845    0.8168 N   0  0  0  0  0  0  0  0  0  0  0  0
  1  2  1  0
  2  3  2  0
  2  4  1  0
  4  5  1  0
  4  6  1  0
  6  7  1  0
  7  8  1  0
  8  9  1  0
  9 10  1  0
 10 11  1  0
 11 12  1  0
 12 13  2  0
 12 14  1  0
 14 15  1  0
 15 16  1  0
 16 17  2  0
 16 18  1  0
 18 19  1  0
 18 20  1  0
 20 21  1  0
 21 22  1  0
 22 23  1  0
 23 24  1  0
 24 25  1  0
 25 26  1  0
 26 27  2  0
 26 28  1  0
 28 29  1  0
 29 30  1  0
 30 31  2  0
 30 32  1  0
 32 33  1  0
 32 34  1  0
 34 35  1  0
 35 36  1  0
 36 37  1  0
 37 38  1  0
 38 39  1  0
M  END
>  <zinc_id>  (1) 
ZINC000003830635

>  <smiles>  (1) 
CC(=O)N(O)CCCCCNC(=O)CCC(=O)N(O)CCCCCNC(=O)CCC(=O)N(O)CCCCCN

$$$$
