
     RDKit          3D

 46 49  0  0  0  0  0  0  0  0999 V2000
   -3.5304    3.7289   -1.5530 C   0  0  0  0  0  0  0  0  0  0  0  0
   -4.4164    3.3165   -0.8731 C   0  0  0  0  0  0  0  0  0  0  0  0
   -5.3362    4.1895   -0.2786 C   0  0  0  0  0  0  0  0  0  0  0  0
   -6.3822    3.7149    0.5150 C   0  0  0  0  0  0  0  0  0  0  0  0
   -6.5782    2.3995    0.7635 C   0  0  0  0  0  0  0  0  0  0  0  0
   -5.6728    1.4746    0.1796 C   0  0  0  0  0  0  0  0  0  0  0  0
   -5.9228    0.0281    0.3701 C   0  0  0  0  0  0  0  0  0  0  0  0
   -4.6486    1.9864   -0.5968 C   0  0  0  0  0  0  0  0  0  0  0  0
   -3.7541    1.0861   -1.1743 O   0  0  0  0  0  0  0  0  0  0  0  0
   -2.4972    0.7371   -0.8607 C   0  0  0  0  0  0  0  0  0  0  0  0
   -2.1341    0.2816    0.4461 C   0  0  0  0  0  0  0  0  0  0  0  0
   -2.7741    0.3198    1.5266 O   0  0  0  0  0  0  0  0  0  0  0  0
   -0.8342   -0.3299    0.6205 N   0  0  0  0  0  0  0  0  0  0  0  0
   -0.3939   -0.8114    1.9597 C   0  0  1  0  0  0  0  0  0  0  0  0
   -0.1924   -2.3235    1.6950 C   0  0  0  0  0  0  0  0  0  0  0  0
   -1.5165   -2.8402    1.2956 C   0  0  0  0  0  0  0  0  0  0  0  0
   -2.4478   -3.2651    2.2144 C   0  0  0  0  0  0  0  0  0  0  0  0
   -3.6750   -3.7803    1.9180 C   0  0  0  0  0  0  0  0  0  0  0  0
   -4.0416   -3.8983    0.5871 C   0  0  0  0  0  0  0  0  0  0  0  0
   -3.1538   -3.4935   -0.3726 C   0  0  0  0  0  0  0  0  0  0  0  0
   -1.9306   -2.9801   -0.0391 C   0  0  0  0  0  0  0  0  0  0  0  0
    1.1000   -0.1544    2.0024 C   0  0  1  0  0  0  0  0  0  0  0  0
    1.4757   -0.7385    3.3204 O   0  0  0  0  0  0  0  0  0  0  0  0
    2.0423   -1.0632    1.1279 C   0  0  0  0  0  0  0  0  0  0  0  0
    1.4075   -0.9032   -0.3559 C   0  0  2  0  0  0  0  0  0  0  0  0
    2.4775   -1.8423   -1.1320 C   0  0  0  0  0  0  0  0  0  0  0  0
    2.4788   -3.2107   -0.6549 C   0  0  0  0  0  0  0  0  0  0  0  0
    3.1914   -3.7774    0.3728 C   0  0  0  0  0  0  0  0  0  0  0  0
    3.2010   -5.0366    0.8317 C   0  0  0  0  0  0  0  0  0  0  0  0
    2.3597   -5.9007    0.1670 C   0  0  0  0  0  0  0  0  0  0  0  0
    1.5706   -5.4698   -0.9017 C   0  0  0  0  0  0  0  0  0  0  0  0
    1.6454   -4.1412   -1.2884 C   0  0  0  0  0  0  0  0  0  0  0  0
    2.1379    0.4906   -0.6610 N   0  0  0  0  0  0  0  0  0  0  0  0
    3.4456    0.5392   -0.8365 C   0  0  0  0  0  0  0  0  0  0  0  0
    4.0899   -0.4802   -0.7670 O   0  0  0  0  0  0  0  0  0  0  0  0
    4.4191    1.7466   -1.1480 C   0  0  2  0  0  0  0  0  0  0  0  0
    5.2832    1.7834    0.1844 C   0  0  0  0  0  0  0  0  0  0  0  0
    6.3772    2.8269   -0.0227 C   0  0  0  0  0  0  0  0  0  0  0  0
    5.9727    0.6314    0.5879 C   0  0  0  0  0  0  0  0  0  0  0  0
    3.3376    2.8007   -0.8791 N   0  0  0  0  0  0  0  0  0  0  0  0
    2.4022    2.8146   -2.0015 C   0  0  0  0  0  0  0  0  0  0  0  0
    1.4169    3.9005   -1.8176 C   0  0  0  0  0  0  0  0  0  0  0  0
    0.8588    4.0422   -0.4263 C   0  0  0  0  0  0  0  0  0  0  0  0
    1.8250    3.8168    0.6078 N   0  0  0  0  0  0  0  0  0  0  0  0
    3.1955    3.6004    0.1641 C   0  0  0  0  0  0  0  0  0  0  0  0
    4.1213    4.1843    0.8022 O   0  0  0  0  0  0  0  0  0  0  0  0
  1  2  1  0
  2  3  2  0
  3  4  1  0
  4  5  2  0
  5  6  1  0
  6  7  1  0
  6  8  2  0
  8  9  1  0
  9 10  1  0
 10 11  1  0
 11 12  2  0
 11 13  1  0
 13 14  1  0
 14 15  1  6
 15 16  1  0
 16 17  2  0
 17 18  1  0
 18 19  2  0
 19 20  1  0
 20 21  2  0
 14 22  1  0
 22 23  1  1
 22 24  1  0
 25 24  1  1
 25 26  1  0
 26 27  1  0
 27 28  2  0
 28 29  1  0
 29 30  2  0
 30 31  1  0
 31 32  2  0
 25 33  1  0
 33 34  1  0
 34 35  2  0
 36 34  1  0
 36 37  1  1
 37 38  1  0
 37 39  1  0
 36 40  1  0
 40 41  1  0
 41 42  1  0
 42 43  1  0
 43 44  1  0
 44 45  1  0
 45 46  2  0
  8  2  1  0
 21 16  1  0
 32 27  1  0
 45 40  1  0
M  END
>  <zinc_id>  (1) 
ZINC000003951740

>  <smiles>  (1) 
Cc1cccc(C)c1OCC(=O)N[C@@H](Cc1ccccc1)[C@@H](O)C[C@H](Cc1ccccc1)NC(=O)[C@H](C(C)C)N1CCCNC1=O

$$$$
