
     RDKit          2D

 29 31  0  0  0  0  0  0  0  0999 V2000
    3.0972   -3.1264    0.0000 C   0  0  0  0  0  0  0  0  0  0  0  0
    1.7312   -2.5068    0.0000 C   0  0  0  0  0  0  0  0  0  0  0  0
    0.5116   -3.3800    0.0000 C   0  0  0  0  0  0  0  0  0  0  0  0
    0.6580   -4.8728    0.0000 C   0  0  0  0  0  0  0  0  0  0  0  0
   -0.8545   -2.7604    0.0000 C   0  0  0  0  0  0  0  0  0  0  0  0
   -2.0741   -3.6336    0.0000 O   0  0  0  0  0  0  0  0  0  0  0  0
   -1.0009   -1.2676    0.0000 O   0  0  0  0  0  0  0  0  0  0  0  0
   -2.3670   -0.6479    0.0000 C   0  0  0  0  0  0  0  0  0  0  0  0
   -3.5866   -1.5212    0.0000 C   0  0  0  0  0  0  0  0  0  0  0  0
   -4.9526   -0.9016    0.0000 C   0  0  0  0  0  0  0  0  0  0  0  0
   -6.1722   -1.7748    0.0000 C   0  0  0  0  0  0  0  0  0  0  0  0
   -5.0990    0.5913    0.0000 C   0  0  0  0  0  0  0  0  0  0  0  0
   -3.8794    1.4645    0.0000 C   0  0  0  0  0  0  0  0  0  0  0  0
   -4.0259    2.9573    0.0000 C   0  0  0  0  0  0  0  0  0  0  0  0
   -2.8062    3.8306    0.0000 C   0  0  0  0  0  0  0  0  0  0  0  0
   -1.4402    3.2110    0.0000 C   0  0  0  0  0  0  0  0  0  0  0  0
   -0.2206    4.0842    0.0000 C   0  0  0  0  0  0  0  0  0  0  0  0
   -1.2938    1.7181    0.0000 C   0  0  0  0  0  0  0  0  0  0  0  0
    0.0723    1.0985    0.0000 C   0  0  0  0  0  0  0  0  0  0  0  0
    1.2919    1.9717    0.0000 C   0  0  0  0  0  0  0  0  0  0  0  0
    2.6580    1.3521    0.0000 C   0  0  0  0  0  0  0  0  0  0  0  0
    3.8776    2.2254    0.0000 C   0  0  0  0  0  0  0  0  0  0  0  0
    5.2436    1.6058    0.0000 C   0  0  0  0  0  0  0  0  0  0  0  0
    6.4632    2.4790    0.0000 O   0  0  0  0  0  0  0  0  0  0  0  0
    5.3901    0.1129    0.0000 C   0  0  0  0  0  0  0  0  0  0  0  0
    4.1704   -0.7603    0.0000 C   0  0  0  0  0  0  0  0  0  0  0  0
    4.3169   -2.2531    0.0000 O   0  0  0  0  0  0  0  0  0  0  0  0
    2.8044   -0.1407    0.0000 O   0  0  0  0  0  0  0  0  0  0  0  0
   -2.5134    0.8449    0.0000 C   0  0  0  0  0  0  0  0  0  0  0  0
  1  2  1  0
  2  3  1  0
  3  4  1  6
  3  5  1  0
  5  6  2  0
  5  7  1  0
  8  7  1  1
  8  9  1  0
  9 10  1  0
 10 11  1  1
 10 12  1  0
 12 13  2  0
 13 14  1  0
 14 15  2  0
 15 16  1  0
 16 17  1  6
 16 18  1  0
 18 19  1  6
 19 20  1  0
 21 20  1  6
 21 22  1  0
 22 23  1  0
 23 24  1  1
 23 25  1  0
 25 26  1  0
 26 27  2  0
 26 28  1  0
 18 29  1  0
 29  8  1  0
 29 13  1  1
 28 21  1  0
M  END
>  <zinc_id>  (1) 
ZINC000003812841

>  <smiles>  (1) 
CC[C@H](C)C(=O)O[C@H]1C[C@@H](C)C=C2C=C[C@H](C)[C@H](CC[C@@H]3C[C@@H](O)CC(=O)O3)[C@H]21

$$$$
