
     RDKit          3D

  9  9  0  0  0  0  0  0  0  0999 V2000
    2.3551    0.9437    0.8292 O   0  0  0  0  0  0  0  0  0  0  0  0
    1.7583    0.2011    0.0180 C   0  0  0  0  0  0  0  0  0  0  0  0
    2.4780   -0.5109   -0.9232 O   0  0  0  0  0  0  0  0  0  0  0  0
    0.3033    0.0572    0.0300 C   0  0  0  0  0  0  0  0  0  0  0  0
   -0.5167    0.7171    0.9216 C   0  0  0  0  0  0  0  0  0  0  0  0
   -1.8819    0.5546    0.9001 C   0  0  0  0  0  0  0  0  0  0  0  0
   -2.4595   -0.2774   -0.0205 C   0  0  0  0  0  0  0  0  0  0  0  0
   -1.6835   -0.9243   -0.8911 N   0  0  0  0  0  0  0  0  0  0  0  0
   -0.3531   -0.7610   -0.8641 C   0  0  0  0  0  0  0  0  0  0  0  0
  1  2  2  0
  2  3  1  0
  2  4  1  0
  4  5  2  0
  5  6  1  0
  6  7  2  0
  7  8  1  0
  8  9  2  0
  9  4  1  0
M  END
>  <zinc_id>  (1) 
ZINC000000001795

>  <smiles>  (1) 
O=C(O)c1cccnc1

$$$$
