
     RDKit          3D

 21 22  0  0  0  0  0  0  0  0999 V2000
   -5.1435   -0.1907   -0.8660 C   0  0  0  0  0  0  0  0  0  0  0  0
   -5.0284   -0.3415   -0.4991 C   0  0  0  0  0  0  0  0  0  0  0  0
   -4.1341   -1.5437   -0.7842 C   0  0  0  0  0  0  0  0  0  0  0  0
   -6.1534   -0.8548    0.5042 C   0  0  0  0  0  0  0  0  0  0  0  0
   -4.3992    0.7556    0.1812 N   0  0  0  0  0  0  0  0  0  0  0  0
   -3.2577    1.1872   -0.5452 C   0  0  0  0  0  0  0  0  0  0  0  0
   -2.1554    0.0052   -0.3568 C   0  0  2  0  0  0  0  0  0  0  0  0
   -2.1127    0.1278    1.1257 O   0  0  0  0  0  0  0  0  0  0  0  0
   -0.8857    0.9233   -0.6779 C   0  0  0  0  0  0  0  0  0  0  0  0
    0.2721    0.5460   -0.2550 O   0  0  0  0  0  0  0  0  0  0  0  0
    0.9900    0.2835    0.8928 C   0  0  0  0  0  0  0  0  0  0  0  0
    0.5038    0.4077    2.1235 N   0  0  0  0  0  0  0  0  0  0  0  0
    1.7253   -0.0108    3.1719 S   0  0  0  0  0  0  0  0  0  0  0  0
    2.8927   -0.3555    2.0276 N   0  0  0  0  0  0  0  0  0  0  0  0
    2.3335   -0.1458    0.8402 C   0  0  0  0  0  0  0  0  0  0  0  0
    3.0199   -0.3333   -0.4056 N   0  0  0  0  0  0  0  0  0  0  0  0
    3.1970    0.7213   -1.3344 C   0  0  0  0  0  0  0  0  0  0  0  0
    4.6827    0.9214   -1.5384 C   0  0  0  0  0  0  0  0  0  0  0  0
    5.3843   -0.2243   -1.3057 O   0  0  0  0  0  0  0  0  0  0  0  0
    4.7398   -1.4063   -1.6068 C   0  0  0  0  0  0  0  0  0  0  0  0
    3.5289   -1.6279   -0.6919 C   0  0  0  0  0  0  0  0  0  0  0  0
  1  2  1  0
  2  3  1  0
  2  4  1  0
  2  5  1  0
  5  6  1  0
  6  7  1  0
  7  8  1  1
  7  9  1  0
  9 10  1  0
 10 11  1  0
 11 12  2  0
 12 13  1  0
 13 14  1  0
 14 15  2  0
 15 16  1  0
 16 17  1  0
 17 18  1  0
 18 19  1  0
 19 20  1  0
 20 21  1  0
 15 11  1  0
 21 16  1  0
M  END
>  <zinc_id>  (1) 
ZINC000000002176

>  <smiles>  (1) 
CC(C)(C)NC[C@H](O)COc1nsnc1N1CCOCC1

$$$$
