
     RDKit          3D

 11 12  0  0  0  0  0  0  0  0999 V2000
   -1.6919    2.0933   -0.1766 O   0  0  0  0  0  0  0  0  0  0  0  0
   -1.3334    0.7587   -0.1217 C   0  0  0  0  0  0  0  0  0  0  0  0
   -2.2914   -0.2372   -0.1789 C   0  0  0  0  0  0  0  0  0  0  0  0
   -1.9404   -1.5682   -0.1246 C   0  0  0  0  0  0  0  0  0  0  0  0
   -0.6008   -1.8726   -0.0114 C   0  0  0  0  0  0  0  0  0  0  0  0
    0.3535   -0.8729    0.0455 C   0  0  0  0  0  0  0  0  0  0  0  0
    1.6903   -1.1902    0.1588 C   0  0  0  0  0  0  0  0  0  0  0  0
    2.6220   -0.1736    0.2134 C   0  0  0  0  0  0  0  0  0  0  0  0
    2.2460    1.1541    0.1572 C   0  0  0  0  0  0  0  0  0  0  0  0
    0.9351    1.4456    0.0465 N   0  0  0  0  0  0  0  0  0  0  0  0
    0.0110    0.4631   -0.0082 C   0  0  0  0  0  0  0  0  0  0  0  0
  1  2  1  0
  2  3  2  0
  3  4  1  0
  4  5  2  0
  5  6  1  0
  6  7  2  0
  7  8  1  0
  8  9  2  0
  9 10  1  0
 10 11  2  0
 11  2  1  0
 11  6  1  0
M  END
>  <zinc_id>  (1) 
ZINC000000008492

>  <smiles>  (1) 
Oc1cccc2cccnc12

$$$$
