
     RDKit          3D

 23 24  0  0  0  0  0  0  0  0999 V2000
    5.5534    0.8504   -1.3247 C   0  0  0  0  0  0  0  0  0  0  0  0
    5.8492    0.4136   -0.4470 C   0  0  0  0  0  0  0  0  0  0  0  0
    5.7877   -0.9624    0.0261 C   0  0  0  0  0  0  0  0  0  0  0  0
    5.3750    1.4426    0.7703 C   0  0  2  0  0  0  0  0  0  0  0  0
    5.9213    0.5865    1.9793 N   0  0  0  0  0  0  0  0  0  0  0  0
    3.8839    0.9389    0.8361 C   0  0  0  0  0  0  0  0  0  0  0  0
    3.6092    0.1294    1.6964 O   0  0  0  0  0  0  0  0  0  0  0  0
    2.9499    1.3945   -0.0350 O   0  0  0  0  0  0  0  0  0  0  0  0
    1.6245    0.9095    0.0675 C   0  0  0  0  0  0  0  0  0  0  0  0
    1.5827   -0.5988   -0.1173 C   0  0  0  0  0  0  0  0  0  0  0  0
    0.2964   -1.0902   -0.0205 O   0  0  0  0  0  0  0  0  0  0  0  0
   -0.4658   -0.5004   -0.9981 C   0  0  0  0  0  0  0  0  0  0  0  0
   -1.8413   -0.9421   -0.9928 N   0  0  0  0  0  0  0  0  0  0  0  0
   -2.3899   -1.9734   -1.6501 C   0  0  0  0  0  0  0  0  0  0  0  0
   -3.7086   -2.0208   -1.3550 N   0  0  0  0  0  0  0  0  0  0  0  0
   -4.0134   -1.0237   -0.5094 C   0  0  0  0  0  0  0  0  0  0  0  0
   -2.8306   -0.3472   -0.2852 C   0  0  0  0  0  0  0  0  0  0  0  0
   -2.8123    0.7280    0.5393 N   0  0  0  0  0  0  0  0  0  0  0  0
   -3.9399    1.1448    1.1444 C   0  0  0  0  0  0  0  0  0  0  0  0
   -3.9570    2.2785    2.0230 N   0  0  0  0  0  0  0  0  0  0  0  0
   -5.0876    0.4707    0.9132 N   0  0  0  0  0  0  0  0  0  0  0  0
   -5.1721   -0.5959    0.1119 C   0  0  0  0  0  0  0  0  0  0  0  0
   -6.2146   -1.2325   -0.1169 O   0  0  0  0  0  0  0  0  0  0  0  0
  1  2  1  0
  2  3  1  0
  2  4  1  0
  4  5  1  1
  4  6  1  0
  6  7  2  0
  6  8  1  0
  8  9  1  0
  9 10  1  0
 10 11  1  0
 11 12  1  0
 12 13  1  0
 13 14  1  0
 14 15  2  0
 15 16  1  0
 16 17  2  0
 17 18  1  0
 18 19  2  0
 19 20  1  0
 19 21  1  0
 21 22  1  0
 22 23  2  0
 17 13  1  0
 22 16  1  0
M  END
>  <zinc_id>  (1) 
ZINC000001530713

>  <smiles>  (1) 
CC(C)[C@H](N)C(=O)OCCOCn1cnc2c(=O)[nH]c(N)nc21

$$$$
