
     RDKit          3D

 19 21  0  0  0  0  0  0  0  0999 V2000
    3.6328   -1.6108    1.4815 N   0  0  0  0  0  0  0  0  0  0  0  0
    3.3903   -0.8437    0.5686 C   0  0  0  0  0  0  0  0  0  0  0  0
    4.4229   -0.4797   -0.2785 C   0  0  0  0  0  0  0  0  0  0  0  0
    4.2116    0.3998   -1.3492 C   0  0  0  0  0  0  0  0  0  0  0  0
    2.9629    0.9318   -1.5930 C   0  0  0  0  0  0  0  0  0  0  0  0
    1.9609    0.5533   -0.7382 C   0  0  0  0  0  0  0  0  0  0  0  0
    2.1447   -0.3103    0.3219 C   0  0  0  0  0  0  0  0  0  0  0  0
    0.8400   -0.5078    1.0469 C   0  0  0  0  0  0  0  0  0  0  0  0
   -0.1116    0.3060    0.3365 N   0  0  0  0  0  0  0  0  0  0  0  0
   -1.5570    0.3596    0.7976 C   0  0  1  0  0  0  0  0  0  0  0  0
   -2.2047    1.2871   -0.3968 C   0  0  0  0  0  0  0  0  0  0  0  0
   -3.6486    1.3552    0.0597 C   0  0  0  0  0  0  0  0  0  0  0  0
   -4.2901    0.0399   -0.2170 C   0  0  0  0  0  0  0  0  0  0  0  0
   -5.5353   -0.0612   -0.3944 O   0  0  0  0  0  0  0  0  0  0  0  0
   -3.3947   -1.0911   -0.2659 N   0  0  0  0  0  0  0  0  0  0  0  0
   -2.0519   -1.0046    0.1546 C   0  0  0  0  0  0  0  0  0  0  0  0
   -1.2813   -1.9470    0.0334 O   0  0  0  0  0  0  0  0  0  0  0  0
    0.5450    0.9252   -0.7099 C   0  0  0  0  0  0  0  0  0  0  0  0
   -0.0359    1.6983   -1.5074 O   0  0  0  0  0  0  0  0  0  0  0  0
  1  2  1  0
  2  3  2  0
  3  4  1  0
  4  5  2  0
  5  6  1  0
  6  7  2  0
  7  8  1  0
  8  9  1  0
 10  9  1  6
 10 11  1  0
 11 12  1  0
 12 13  1  0
 13 14  2  0
 13 15  1  0
 15 16  1  0
 16 17  2  0
  9 18  1  0
 18 19  2  0
  7  2  1  0
 16 10  1  0
 18  6  1  0
M  END
>  <zinc_id>  (1) 
ZINC000001997127

>  <smiles>  (1) 
Nc1cccc2c1CN([C@H]1CCC(=O)NC1=O)C2=O

$$$$
