
     RDKit          3D

 23 23  0  0  0  0  0  0  0  0999 V2000
    6.5765    2.9983    1.1362 C   0  0  0  0  0  0  0  0  0  0  0  0
    5.1283    3.1711    1.0702 C   0  0  0  0  0  0  0  0  0  0  0  0
    4.4237    3.4005    2.3579 C   0  0  0  0  0  0  0  0  0  0  0  0
    4.4350    2.4675    0.0731 N   0  0  0  0  0  0  0  0  0  0  0  0
    4.5604    1.0081    0.2452 C   0  0  0  0  0  0  0  0  0  0  0  0
    3.6456    0.4584   -1.0510 C   0  0  2  0  0  0  0  0  0  0  0  0
    2.3973    1.1505   -0.5462 O   0  0  0  0  0  0  0  0  0  0  0  0
    3.3273   -0.9748   -0.3377 C   0  0  0  0  0  0  0  0  0  0  0  0
    2.2372   -1.5507   -0.7441 O   0  0  0  0  0  0  0  0  0  0  0  0
    0.9414   -1.6405   -0.9342 C   0  0  0  0  0  0  0  0  0  0  0  0
    0.0421   -0.6845   -0.5578 C   0  0  0  0  0  0  0  0  0  0  0  0
   -1.3139   -0.7779   -0.7559 C   0  0  0  0  0  0  0  0  0  0  0  0
   -1.8127   -1.8831   -1.3629 C   0  0  0  0  0  0  0  0  0  0  0  0
   -3.2864   -1.9884   -1.5801 C   0  0  0  0  0  0  0  0  0  0  0  0
   -3.9370   -2.5883   -0.5018 O   0  0  0  0  0  0  0  0  0  0  0  0
   -3.7697   -1.8805    0.6763 C   0  0  0  0  0  0  0  0  0  0  0  0
   -4.3140   -0.4740    0.5872 C   0  0  0  0  0  0  0  0  0  0  0  0
   -4.1182    0.1854    1.7955 O   0  0  0  0  0  0  0  0  0  0  0  0
   -4.6181    1.4834    1.7151 C   0  0  0  0  0  0  0  0  0  0  0  0
   -6.1096    1.5010    1.4094 C   0  0  0  0  0  0  0  0  0  0  0  0
   -3.9167    2.2771    0.6271 C   0  0  0  0  0  0  0  0  0  0  0  0
   -0.9400   -2.8769   -1.7607 C   0  0  0  0  0  0  0  0  0  0  0  0
    0.4214   -2.7816   -1.5611 C   0  0  0  0  0  0  0  0  0  0  0  0
  1  2  1  0
  2  3  1  0
  2  4  1  0
  4  5  1  0
  5  6  1  0
  6  7  1  1
  6  8  1  0
  8  9  1  0
  9 10  1  0
 10 11  2  0
 11 12  1  0
 12 13  2  0
 13 14  1  0
 14 15  1  0
 15 16  1  0
 16 17  1  0
 17 18  1  0
 18 19  1  0
 19 20  1  0
 19 21  1  0
 13 22  1  0
 22 23  2  0
 23 10  1  0
M  END
>  <zinc_id>  (1) 
ZINC000001530569

>  <smiles>  (1) 
CC(C)NC[C@H](O)COc1ccc(COCCOC(C)C)cc1

$$$$
