
     RDKit          3D

 21 23  0  0  0  0  0  0  0  0999 V2000
    4.9068   -1.7166    1.8216 C   0  0  0  0  0  0  0  0  0  0  0  0
    3.5025   -1.3381    1.6037 N   0  0  0  0  0  0  0  0  0  0  0  0
    3.0188   -2.3063    0.6035 C   0  0  0  0  0  0  0  0  0  0  0  0
    3.4457    0.0103    1.0810 C   0  0  0  0  0  0  0  0  0  0  0  0
    2.0595    0.5041    0.8359 C   0  0  0  0  0  0  0  0  0  0  0  0
    1.2951   -0.3398   -0.1609 C   0  0  0  0  0  0  0  0  0  0  0  0
   -0.0579    0.2155   -0.3501 N   0  0  0  0  0  0  0  0  0  0  0  0
   -0.1662    1.5232   -0.8265 C   0  0  0  0  0  0  0  0  0  0  0  0
    1.0292    2.2115   -1.0897 C   0  0  0  0  0  0  0  0  0  0  0  0
    1.0344    3.5030   -1.5610 C   0  0  0  0  0  0  0  0  0  0  0  0
   -0.1575    4.1787   -1.7955 C   0  0  0  0  0  0  0  0  0  0  0  0
   -1.3199    3.4949   -1.5343 C   0  0  0  0  0  0  0  0  0  0  0  0
   -1.3263    2.2202   -1.0690 C   0  0  0  0  0  0  0  0  0  0  0  0
   -2.8808    1.3709   -0.7432 S   0  0  0  0  0  0  0  0  0  0  0  0
   -2.4470   -0.2436   -0.1579 C   0  0  0  0  0  0  0  0  0  0  0  0
   -3.4394   -1.1020    0.1657 C   0  0  0  0  0  0  0  0  0  0  0  0
   -3.1559   -2.3819    0.6302 C   0  0  0  0  0  0  0  0  0  0  0  0
   -1.8547   -2.8126    0.7741 C   0  0  0  0  0  0  0  0  0  0  0  0
   -1.4989   -4.4259    1.3594 Cl  0  0  0  0  0  0  0  0  0  0  0  0
   -0.8512   -1.9287    0.4410 C   0  0  0  0  0  0  0  0  0  0  0  0
   -1.1363   -0.6368   -0.0278 C   0  0  0  0  0  0  0  0  0  0  0  0
  1  2  1  0
  2  3  1  0
  2  4  1  0
  4  5  1  0
  5  6  1  0
  6  7  1  0
  7  8  1  0
  8  9  2  0
  9 10  1  0
 10 11  2  0
 11 12  1  0
 12 13  2  0
 13 14  1  0
 14 15  1  0
 15 16  2  0
 16 17  1  0
 17 18  2  0
 18 19  1  0
 18 20  1  0
 20 21  2  0
 21  7  1  0
 13  8  1  0
 21 15  1  0
M  END
>  <zinc_id>  (1) 
ZINC000000044027

>  <smiles>  (1) 
CN(C)CCCN1c2ccccc2Sc2ccc(Cl)cc21

$$$$
