
     RDKit          3D

 21 23  0  0  0  0  0  0  0  0999 V2000
    3.9167   -2.7099   -1.2799 C   0  0  0  0  0  0  0  0  0  0  0  0
    4.0012   -2.0688   -1.0946 N   0  0  0  0  0  0  0  0  0  0  0  0
    3.0281   -0.9596   -0.8542 C   0  0  0  0  0  0  0  0  0  0  0  0
    2.3626   -1.4005    0.3516 C   0  0  0  0  0  0  0  0  0  0  0  0
    1.2511   -0.4499    0.9737 C   0  0  2  0  0  0  0  0  0  0  0  0
    0.2824   -0.4005   -0.2213 O   0  0  0  0  0  0  0  0  0  0  0  0
   -1.0481   -0.6484    0.1232 C   0  0  0  0  0  0  0  0  0  0  0  0
   -1.1655   -1.7113    1.0857 C   0  0  0  0  0  0  0  0  0  0  0  0
   -2.3954   -2.0664    1.4829 C   0  0  0  0  0  0  0  0  0  0  0  0
   -3.5273   -1.4654    1.0185 C   0  0  0  0  0  0  0  0  0  0  0  0
   -3.4470   -0.3962    0.0676 C   0  0  0  0  0  0  0  0  0  0  0  0
   -4.5299    0.2172   -0.3681 C   0  0  0  0  0  0  0  0  0  0  0  0
   -4.3737    1.2943   -1.2995 C   0  0  0  0  0  0  0  0  0  0  0  0
   -3.1359    1.6651   -1.7139 C   0  0  0  0  0  0  0  0  0  0  0  0
   -2.0485    1.0060   -1.2396 C   0  0  0  0  0  0  0  0  0  0  0  0
   -2.1646   -0.0313   -0.3468 C   0  0  0  0  0  0  0  0  0  0  0  0
    1.9979    0.9297    0.6632 C   0  0  0  0  0  0  0  0  0  0  0  0
    1.4426    2.0032    0.1419 C   0  0  0  0  0  0  0  0  0  0  0  0
    2.3046    3.0322   -0.1116 C   0  0  0  0  0  0  0  0  0  0  0  0
    3.6105    2.8830    0.1807 C   0  0  0  0  0  0  0  0  0  0  0  0
    3.6383    1.2776    0.8241 S   0  0  0  0  0  0  0  0  0  0  0  0
  1  2  1  0
  2  3  1  0
  3  4  1  0
  5  4  1  6
  5  6  1  0
  6  7  1  0
  7  8  2  0
  8  9  1  0
  9 10  2  0
 10 11  1  0
 11 12  2  0
 12 13  1  0
 13 14  2  0
 14 15  1  0
 15 16  2  0
  5 17  1  0
 17 18  2  0
 18 19  1  0
 19 20  2  0
 20 21  1  0
 16  7  1  0
 21 17  1  0
 16 11  1  0
M  END
>  <zinc_id>  (1) 
ZINC000001536779

>  <smiles>  (1) 
CNCC[C@H](Oc1cccc2ccccc12)c1cccs1

$$$$
