
     RDKit          3D

 34 37  0  0  0  0  0  0  0  0999 V2000
    8.7481    1.1734    2.2309 O   0  0  0  0  0  0  0  0  0  0  0  0
    8.3338    0.7453    1.1214 C   0  0  0  0  0  0  0  0  0  0  0  0
    9.2535    0.5850    0.1033 O   0  0  0  0  0  0  0  0  0  0  0  0
    6.9240    0.4280    0.9173 C   0  0  0  0  0  0  0  0  0  0  0  0
    5.9973    0.5832    1.9234 C   0  0  0  0  0  0  0  0  0  0  0  0
    4.6787    0.2734    1.6917 C   0  0  0  0  0  0  0  0  0  0  0  0
    3.7800    0.3904    2.5623 O   0  0  0  0  0  0  0  0  0  0  0  0
    4.3044   -0.1893    0.4514 C   0  0  0  0  0  0  0  0  0  0  0  0
    3.0033   -0.5022    0.2002 C   0  0  0  0  0  0  0  0  0  0  0  0
    2.0289   -0.3668    1.1708 O   0  0  0  0  0  0  0  0  0  0  0  0
    0.6972   -0.6911    0.9009 C   0  0  0  0  0  0  0  0  0  0  0  0
    0.1424    0.1177   -0.1976 C   0  0  0  0  0  0  0  0  0  0  0  0
    0.1057    1.4639   -0.0647 O   0  0  0  0  0  0  0  0  0  0  0  0
   -0.6733   -0.5325   -1.2221 C   0  0  0  0  0  0  0  0  0  0  0  0
   -2.0409   -0.3833   -1.1950 O   0  0  0  0  0  0  0  0  0  0  0  0
   -2.9529   -0.7189   -0.2444 C   0  0  0  0  0  0  0  0  0  0  0  0
   -2.5447   -1.3151    0.9286 C   0  0  0  0  0  0  0  0  0  0  0  0
   -3.4878   -1.6462    1.8770 C   0  0  0  0  0  0  0  0  0  0  0  0
   -4.8129   -1.3827    1.6495 C   0  0  0  0  0  0  0  0  0  0  0  0
   -5.2587   -0.7839    0.4806 C   0  0  0  0  0  0  0  0  0  0  0  0
   -6.5445   -0.5396    0.2841 O   0  0  0  0  0  0  0  0  0  0  0  0
   -7.0070    0.0222   -0.8012 C   0  0  0  0  0  0  0  0  0  0  0  0
   -8.4553    0.2689   -0.9615 C   0  0  0  0  0  0  0  0  0  0  0  0
   -8.9233    0.7998   -1.9794 O   0  0  0  0  0  0  0  0  0  0  0  0
   -9.3045   -0.1013    0.0470 O   0  0  0  0  0  0  0  0  0  0  0  0
   -6.1046    0.3740   -1.7838 C   0  0  0  0  0  0  0  0  0  0  0  0
   -4.7542    0.1372   -1.6198 C   0  0  0  0  0  0  0  0  0  0  0  0
   -3.8905    0.4344   -2.4757 O   0  0  0  0  0  0  0  0  0  0  0  0
   -4.2968   -0.4598   -0.4577 C   0  0  0  0  0  0  0  0  0  0  0  0
    2.6651   -0.9584   -1.0402 C   0  0  0  0  0  0  0  0  0  0  0  0
    3.6263   -1.0954   -2.0085 C   0  0  0  0  0  0  0  0  0  0  0  0
    4.9238   -0.7783   -1.7420 C   0  0  0  0  0  0  0  0  0  0  0  0
    5.3015   -0.3126   -0.4941 C   0  0  0  0  0  0  0  0  0  0  0  0
    6.5379   -0.0144   -0.2527 O   0  0  0  0  0  0  0  0  0  0  0  0
  1  2  2  0
  2  3  1  0
  2  4  1  0
  4  5  2  0
  5  6  1  0
  6  7  2  0
  6  8  1  0
  8  9  2  0
  9 10  1  0
 10 11  1  0
 11 12  1  0
 12 13  1  0
 12 14  1  0
 14 15  1  0
 15 16  1  0
 16 17  2  0
 17 18  1  0
 18 19  2  0
 19 20  1  0
 20 21  1  0
 21 22  1  0
 22 23  1  0
 23 24  2  0
 23 25  1  0
 22 26  2  0
 26 27  1  0
 27 28  2  0
 27 29  1  0
  9 30  1  0
 30 31  2  0
 31 32  1  0
 32 33  2  0
 33 34  1  0
 34  4  1  0
 33  8  1  0
 29 16  1  0
 29 20  2  0
M  END
>  <zinc_id>  (1) 
ZINC000001530788

>  <smiles>  (1) 
O=C(O)c1cc(=O)c2c(OCC(O)COc3cccc4oc(C(=O)O)cc(=O)c34)cccc2o1

$$$$
