
     RDKit          3D

 25 26  0  0  0  0  0  0  0  0999 V2000
   -3.0882    0.0731    2.9630 C   0  0  0  0  0  0  0  0  0  0  0  0
   -4.0716    0.2525    1.8525 C   0  0  0  0  0  0  0  0  0  0  0  0
   -5.4179   -0.3376    2.1105 C   0  0  0  0  0  0  0  0  0  0  0  0
   -3.5346   -0.1750    0.6250 O   0  0  0  0  0  0  0  0  0  0  0  0
   -4.1969   -0.1380   -0.5790 C   0  0  0  0  0  0  0  0  0  0  0  0
   -5.3792    0.3112   -0.6077 O   0  0  0  0  0  0  0  0  0  0  0  0
   -3.5713   -0.6030   -1.8195 C   0  0  0  0  0  0  0  0  0  0  0  0
   -4.4601   -1.7090   -2.3859 C   0  0  0  0  0  0  0  0  0  0  0  0
   -3.5746    0.5160   -2.8642 C   0  0  0  0  0  0  0  0  0  0  0  0
   -2.2681   -1.0645   -1.7105 O   0  0  0  0  0  0  0  0  0  0  0  0
   -1.1553   -0.3956   -1.2919 C   0  0  0  0  0  0  0  0  0  0  0  0
   -1.0757    0.9086   -0.8855 C   0  0  0  0  0  0  0  0  0  0  0  0
    0.0839    1.5110   -0.4775 C   0  0  0  0  0  0  0  0  0  0  0  0
    1.2508    0.7846   -0.4664 C   0  0  0  0  0  0  0  0  0  0  0  0
    2.5275    1.3943   -0.0331 C   0  0  0  0  0  0  0  0  0  0  0  0
    2.7761    2.6031   -0.0828 O   0  0  0  0  0  0  0  0  0  0  0  0
    3.5493    0.4687    0.4881 C   0  0  0  0  0  0  0  0  0  0  0  0
    4.8742    0.8500    0.4063 C   0  0  0  0  0  0  0  0  0  0  0  0
    5.8673    0.0217    0.8785 C   0  0  0  0  0  0  0  0  0  0  0  0
    5.5007   -1.1857    1.4284 C   0  0  0  0  0  0  0  0  0  0  0  0
    6.7412   -2.2599    2.0376 Cl  0  0  0  0  0  0  0  0  0  0  0  0
    4.1854   -1.5807    1.5174 C   0  0  0  0  0  0  0  0  0  0  0  0
    3.1852   -0.7398    1.0388 C   0  0  0  0  0  0  0  0  0  0  0  0
    1.2162   -0.5317   -0.8678 C   0  0  0  0  0  0  0  0  0  0  0  0
    0.0357   -1.1154   -1.2743 C   0  0  0  0  0  0  0  0  0  0  0  0
  1  2  1  0
  2  3  1  0
  2  4  1  0
  4  5  1  0
  5  6  2  0
  5  7  1  0
  7  8  1  0
  7  9  1  0
  7 10  1  0
 10 11  1  0
 11 12  2  0
 12 13  1  0
 13 14  2  0
 14 15  1  0
 15 16  2  0
 15 17  1  0
 17 18  2  0
 18 19  1  0
 19 20  2  0
 20 21  1  0
 20 22  1  0
 22 23  2  0
 14 24  1  0
 24 25  2  0
 25 11  1  0
 23 17  1  0
M  END
>  <zinc_id>  (1) 
ZINC000000584092

>  <smiles>  (1) 
CC(C)OC(=O)C(C)(C)Oc1ccc(C(=O)c2ccc(Cl)cc2)cc1

$$$$
