
     RDKit          3D

 20 23  0  0  0  0  0  0  0  0999 V2000
   -1.5779   -3.3656   -0.6986 C   0  0  0  0  0  0  0  0  0  0  0  0
   -1.2044   -2.6472   -0.8588 N   0  0  0  0  0  0  0  0  0  0  0  0
   -1.9259   -1.4362   -1.0270 C   0  0  0  0  0  0  0  0  0  0  0  0
   -0.7616   -0.3133   -0.9379 C   0  0  1  0  0  0  0  0  0  0  0  0
   -1.5701    0.7882   -0.2194 C   0  0  0  0  0  0  0  0  0  0  0  0
   -2.8875    0.7293   -0.4938 C   0  0  0  0  0  0  0  0  0  0  0  0
   -3.7073    1.6907    0.0931 C   0  0  0  0  0  0  0  0  0  0  0  0
   -3.1801    2.6491    0.9125 C   0  0  0  0  0  0  0  0  0  0  0  0
   -1.8063    2.6979    1.1893 C   0  0  0  0  0  0  0  0  0  0  0  0
   -1.0059    1.7257    0.5909 C   0  0  0  0  0  0  0  0  0  0  0  0
    0.3422    1.9229    0.9764 O   0  0  0  0  0  0  0  0  0  0  0  0
    1.3453    0.9567    0.6697 C   0  0  0  0  0  0  0  0  0  0  0  0
    2.6237    1.5097    0.6206 C   0  0  0  0  0  0  0  0  0  0  0  0
    3.6607    0.6252    0.3240 C   0  0  0  0  0  0  0  0  0  0  0  0
    3.4917   -0.7169    0.0861 C   0  0  0  0  0  0  0  0  0  0  0  0
    4.8556   -1.7647   -0.2819 Cl  0  0  0  0  0  0  0  0  0  0  0  0
    2.1987   -1.2336    0.1442 C   0  0  0  0  0  0  0  0  0  0  0  0
    1.1988   -0.3852    0.4295 C   0  0  0  0  0  0  0  0  0  0  0  0
   -0.2103   -1.0525    0.4967 C   0  0  2  0  0  0  0  0  0  0  0  0
    0.1206   -2.3803   -0.3738 C   0  0  0  0  0  0  0  0  0  0  0  0
  1  2  1  0
  2  3  1  0
  4  3  1  1
  4  5  1  0
  5  6  2  0
  6  7  1  0
  7  8  2  0
  8  9  1  0
  9 10  2  0
 10 11  1  0
 11 12  1  0
 12 13  2  0
 13 14  1  0
 14 15  2  0
 15 16  1  0
 15 17  1  0
 17 18  2  0
 18 19  1  0
 19 20  1  6
 20  2  1  0
 19  4  1  0
 10  5  1  0
 18 12  1  0
M  END
>  <zinc_id>  (1) 
ZINC000000004893

>  <smiles>  (1) 
CN1C[C@H]2c3ccccc3Oc3ccc(Cl)cc3[C@@H]2C1

$$$$
