
     RDKit          3D

 18 19  0  0  0  0  0  0  0  0999 V2000
   -3.7483    0.5529    1.4896 C   0  0  0  0  0  0  0  0  0  0  0  0
   -3.4544   -0.6689    0.4588 C   0  0  1  0  0  0  0  0  0  0  0  0
   -3.9119    0.1298   -0.8199 C   0  0  0  0  0  0  0  0  0  0  0  0
   -3.1429    0.7100   -1.5550 O   0  0  0  0  0  0  0  0  0  0  0  0
   -5.2972    0.0709   -0.9754 O   0  0  0  0  0  0  0  0  0  0  0  0
   -1.9053   -0.4606    0.3427 C   0  0  0  0  0  0  0  0  0  0  0  0
   -1.2083   -0.0247    1.4506 C   0  0  0  0  0  0  0  0  0  0  0  0
    0.1692    0.1576    1.3975 C   0  0  0  0  0  0  0  0  0  0  0  0
    0.8234   -0.1063    0.2149 C   0  0  0  0  0  0  0  0  0  0  0  0
    2.2973    0.0873    0.1532 C   0  0  0  0  0  0  0  0  0  0  0  0
    2.8395    1.2340    0.6997 C   0  0  0  0  0  0  0  0  0  0  0  0
    4.2038    1.3895    0.6301 C   0  0  0  0  0  0  0  0  0  0  0  0
    5.0399    0.4639    0.0471 C   0  0  0  0  0  0  0  0  0  0  0  0
    4.4889   -0.6739   -0.4938 C   0  0  0  0  0  0  0  0  0  0  0  0
    3.1215   -0.8311   -0.4247 C   0  0  0  0  0  0  0  0  0  0  0  0
    0.1171   -0.5394   -0.8799 C   0  0  0  0  0  0  0  0  0  0  0  0
    0.8063   -0.7843   -2.0168 F   0  0  0  0  0  0  0  0  0  0  0  0
   -1.2388   -0.7069   -0.7880 C   0  0  0  0  0  0  0  0  0  0  0  0
  2  1  1  1
  2  3  1  0
  3  4  2  0
  3  5  1  0
  2  6  1  0
  6  7  2  0
  7  8  1  0
  8  9  2  0
  9 10  1  0
 10 11  2  0
 11 12  1  0
 12 13  2  0
 13 14  1  0
 14 15  2  0
  9 16  1  0
 16 17  1  0
 16 18  2  0
 18  6  1  0
 15 10  1  0
M  END
>  <zinc_id>  (1) 
ZINC000000008667

>  <smiles>  (1) 
C[C@@H](C(=O)O)c1ccc(-c2ccccc2)c(F)c1

$$$$
