
     RDKit          3D

 16 16  0  0  0  0  0  0  0  0999 V2000
   -2.0629   -2.4935   -0.9253 C   0  0  0  0  0  0  0  0  0  0  0  0
   -1.8834   -1.4353   -0.2593 C   0  0  0  0  0  0  0  0  0  0  0  0
   -2.2899   -1.4262    0.9371 O   0  0  0  0  0  0  0  0  0  0  0  0
   -1.2420   -0.2307   -0.7986 N   0  0  0  0  0  0  0  0  0  0  0  0
   -1.2031    0.9401    0.3112 C   0  0  1  0  0  0  0  0  0  0  0  0
   -0.0080    1.7036   -0.6035 C   0  0  0  0  0  0  0  0  0  0  0  0
    1.1064    0.7180   -0.4103 C   0  0  0  0  0  0  0  0  0  0  0  0
    2.0343    1.0408    0.5885 C   0  0  0  0  0  0  0  0  0  0  0  0
    3.0231    0.1585    0.9259 C   0  0  0  0  0  0  0  0  0  0  0  0
    3.1095   -1.0402    0.2879 C   0  0  0  0  0  0  0  0  0  0  0  0
    4.1305   -1.9209    0.6627 O   0  0  0  0  0  0  0  0  0  0  0  0
    2.2227   -1.3944   -0.6902 C   0  0  0  0  0  0  0  0  0  0  0  0
    1.2047   -0.4745   -1.0288 C   0  0  0  0  0  0  0  0  0  0  0  0
   -2.3612    1.7473   -0.2409 C   0  0  0  0  0  0  0  0  0  0  0  0
   -2.1519    2.7152   -1.0240 O   0  0  0  0  0  0  0  0  0  0  0  0
   -3.6289    1.3923    0.1390 O   0  0  0  0  0  0  0  0  0  0  0  0
  1  2  1  0
  2  3  2  0
  2  4  1  0
  4  5  1  0
  5  6  1  6
  6  7  1  0
  7  8  2  0
  8  9  1  0
  9 10  2  0
 10 11  1  0
 10 12  1  0
 12 13  2  0
  5 14  1  0
 14 15  2  0
 14 16  1  0
 13  7  1  0
M  END
>  <zinc_id>  (1) 
ZINC000000156395

>  <smiles>  (1) 
CC(=O)N[C@@H](Cc1ccc(O)cc1)C(=O)O

$$$$
