
     RDKit          3D

 20 21  0  0  0  0  0  0  0  0999 V2000
    4.7896    1.0399    0.8526 C   0  0  0  0  0  0  0  0  0  0  0  0
    4.4291    0.7681   -0.1070 N   0  0  0  0  0  0  0  0  0  0  0  0
    5.1978    0.2443   -1.2061 C   0  0  0  0  0  0  0  0  0  0  0  0
    3.1239    1.2466   -0.5149 C   0  0  0  0  0  0  0  0  0  0  0  0
    2.1138    0.5438    0.3601 C   0  0  0  0  0  0  0  0  0  0  0  0
    0.8289    0.9754    0.0024 O   0  0  0  0  0  0  0  0  0  0  0  0
   -0.0117    0.1500    1.0043 C   0  0  1  0  0  0  0  0  0  0  0  0
   -1.4604    0.7201    0.5124 C   0  0  0  0  0  0  0  0  0  0  0  0
   -2.2915    1.0545    1.5572 C   0  0  0  0  0  0  0  0  0  0  0  0
   -3.5557    1.5602    1.2247 C   0  0  0  0  0  0  0  0  0  0  0  0
   -3.8835    1.6892   -0.1202 C   0  0  0  0  0  0  0  0  0  0  0  0
   -5.4747    2.3255   -0.4790 Cl  0  0  0  0  0  0  0  0  0  0  0  0
   -2.9873    1.3288   -1.1208 C   0  0  0  0  0  0  0  0  0  0  0  0
   -1.7200    0.8219   -0.7913 C   0  0  0  0  0  0  0  0  0  0  0  0
    0.0518   -1.1921    0.1548 C   0  0  0  0  0  0  0  0  0  0  0  0
   -0.1136   -1.3275   -1.1288 C   0  0  0  0  0  0  0  0  0  0  0  0
   -0.0199   -2.5752   -1.7088 C   0  0  0  0  0  0  0  0  0  0  0  0
    0.2488   -3.6434   -0.8906 C   0  0  0  0  0  0  0  0  0  0  0  0
    0.4242   -3.5072    0.4641 C   0  0  0  0  0  0  0  0  0  0  0  0
    0.3105   -2.2228    0.9406 N   0  0  0  0  0  0  0  0  0  0  0  0
  1  2  1  0
  2  3  1  0
  2  4  1  0
  4  5  1  0
  5  6  1  0
  7  6  1  6
  7  8  1  0
  8  9  2  0
  9 10  1  0
 10 11  2  0
 11 12  1  0
 11 13  1  0
 13 14  2  0
  7 15  1  0
 15 16  2  0
 16 17  1  0
 17 18  2  0
 18 19  1  0
 19 20  2  0
 14  8  1  0
 20 15  1  0
M  END
>  <zinc_id>  (1) 
ZINC000000000122

>  <smiles>  (1) 
CN(C)CCO[C@@H](c1ccc(Cl)cc1)c1ccccn1

$$$$
