
     RDKit          3D

 24 25  0  0  0  0  0  0  0  0999 V2000
   -1.6016    0.5013   -1.7253 C   0  0  0  0  0  0  0  0  0  0  0  0
   -1.6159    0.3194   -0.0918 C   0  0  1  0  0  0  0  0  0  0  0  0
   -3.0794   -0.4290   -0.0892 C   0  0  0  0  0  0  0  0  0  0  0  0
   -3.9356    0.6686   -0.7123 C   0  0  0  0  0  0  0  0  0  0  0  0
   -5.3359    0.1798   -0.7815 C   0  0  0  0  0  0  0  0  0  0  0  0
   -6.1075    0.4567    0.3479 C   0  0  0  0  0  0  0  0  0  0  0  0
   -7.4036    0.0502    0.3872 C   0  0  0  0  0  0  0  0  0  0  0  0
   -7.9603   -0.6371   -0.6898 C   0  0  0  0  0  0  0  0  0  0  0  0
   -7.1644   -0.9009   -1.8090 C   0  0  0  0  0  0  0  0  0  0  0  0
   -5.8300   -0.4911   -1.8678 C   0  0  0  0  0  0  0  0  0  0  0  0
   -0.8142   -1.0395   -0.1416 N   0  0  0  0  0  0  0  0  0  0  0  0
    0.4410   -0.5700   -0.7139 C   0  0  0  0  0  0  0  0  0  0  0  0
    1.0085    0.3631    0.5762 C   0  0  1  0  0  0  0  0  0  0  0  0
    1.0218   -0.8495    1.5055 O   0  0  0  0  0  0  0  0  0  0  0  0
    2.5627    0.2606    0.1973 C   0  0  0  0  0  0  0  0  0  0  0  0
    2.9846    0.3337   -1.0585 C   0  0  0  0  0  0  0  0  0  0  0  0
    4.3225    0.2546   -1.3485 C   0  0  0  0  0  0  0  0  0  0  0  0
    5.2153    0.1009   -0.3441 C   0  0  0  0  0  0  0  0  0  0  0  0
    6.5703    0.0255   -0.6920 O   0  0  0  0  0  0  0  0  0  0  0  0
    4.8012    0.0216    0.9739 C   0  0  0  0  0  0  0  0  0  0  0  0
    5.8224   -0.1423    1.9886 C   0  0  0  0  0  0  0  0  0  0  0  0
    7.1820   -0.2222    1.6792 N   0  0  0  0  0  0  0  0  0  0  0  0
    5.4638   -0.2147    3.1892 O   0  0  0  0  0  0  0  0  0  0  0  0
    3.4523    0.1052    1.2203 C   0  0  0  0  0  0  0  0  0  0  0  0
  2  1  1  6
  2  3  1  0
  3  4  1  0
  4  5  1  0
  5  6  2  0
  6  7  1  0
  7  8  2  0
  8  9  1  0
  9 10  2  0
  2 11  1  0
 11 12  1  0
 12 13  1  0
 13 14  1  1
 13 15  1  0
 15 16  2  0
 16 17  1  0
 17 18  2  0
 18 19  1  0
 18 20  1  0
 20 21  1  0
 21 22  1  0
 21 23  2  0
 20 24  2  0
 10  5  1  0
 24 15  1  0
M  END
>  <zinc_id>  (1) 
ZINC000000403011

>  <smiles>  (1) 
C[C@@H](CCc1ccccc1)NC[C@@H](O)c1ccc(O)c(C(N)=O)c1

$$$$
