
     RDKit          2D

 41 44  0  0  0  0  0  0  0  0999 V2000
    9.3011   -3.4901    0.0000 C   0  0  0  0  0  0  0  0  0  0  0  0
    8.0631   -2.6432    0.0000 C   0  0  0  0  0  0  0  0  0  0  0  0
    9.3403   -1.8567    0.0000 C   0  0  0  0  0  0  0  0  0  0  0  0
    9.2979   -0.3573    0.0000 C   0  0  0  0  0  0  0  0  0  0  0  0
    7.9781    0.3556    0.0000 C   0  0  0  0  0  0  0  0  0  0  0  0
    7.9356    1.8550    0.0000 C   0  0  0  0  0  0  0  0  0  0  0  0
    9.2129    2.6415    0.0000 C   0  0  0  0  0  0  0  0  0  0  0  0
    9.1704    4.1409    0.0000 C   0  0  0  0  0  0  0  0  0  0  0  0
    7.8506    4.8538    0.0000 C   0  0  0  0  0  0  0  0  0  0  0  0
    7.8081    6.3532    0.0000 O   0  0  0  0  0  0  0  0  0  0  0  0
    6.5733    4.0673    0.0000 C   0  0  0  0  0  0  0  0  0  0  0  0
    6.6158    2.5679    0.0000 C   0  0  0  0  0  0  0  0  0  0  0  0
    5.3386    1.7814    0.0000 C   0  0  0  0  0  0  0  0  0  0  0  0
    5.3811    0.2820    0.0000 C   0  0  0  0  0  0  0  0  0  0  0  0
    4.1038   -0.5045    0.0000 C   0  0  0  0  0  0  0  0  0  0  0  0
    2.7840    0.2084    0.0000 C   0  0  0  0  0  0  0  0  0  0  0  0
    1.5068   -0.5781    0.0000 C   0  0  0  0  0  0  0  0  0  0  0  0
    0.1870    0.1348    0.0000 C   0  0  0  0  0  0  0  0  0  0  0  0
   -1.0903   -0.6517    0.0000 C   0  0  0  0  0  0  0  0  0  0  0  0
   -2.4100    0.0612    0.0000 C   0  0  0  0  0  0  0  0  0  0  0  0
   -3.6873   -0.7253    0.0000 C   0  0  0  0  0  0  0  0  0  0  0  0
   -5.0071   -0.0124    0.0000 C   0  0  0  0  0  0  0  0  0  0  0  0
   -6.2843   -0.7989    0.0000 C   0  0  0  0  0  0  0  0  0  0  0  0
   -7.6041   -0.0860    0.0000 S   0  0  0  0  0  0  0  0  0  0  0  0
   -7.6466    1.4134    0.0000 O   0  0  0  0  0  0  0  0  0  0  0  0
   -8.8814   -0.8725    0.0000 C   0  0  0  0  0  0  0  0  0  0  0  0
  -10.2011   -0.1596    0.0000 C   0  0  0  0  0  0  0  0  0  0  0  0
  -11.4784   -0.9461    0.0000 C   0  0  0  0  0  0  0  0  0  0  0  0
  -12.7982   -0.2332    0.0000 C   0  0  0  0  0  0  0  0  0  0  0  0
  -13.5111   -1.5529    0.0000 F   0  0  0  0  0  0  0  0  0  0  0  0
  -12.0853    1.0866    0.0000 F   0  0  0  0  0  0  0  0  0  0  0  0
  -14.1179    0.4797    0.0000 C   0  0  0  0  0  0  0  0  0  0  0  0
  -15.4377    1.1926    0.0000 F   0  0  0  0  0  0  0  0  0  0  0  0
  -13.4050    1.7995    0.0000 F   0  0  0  0  0  0  0  0  0  0  0  0
  -14.8308   -0.8400    0.0000 F   0  0  0  0  0  0  0  0  0  0  0  0
    6.7008   -0.4309    0.0000 C   0  0  0  0  0  0  0  0  0  0  0  0
    6.7433   -1.9303    0.0000 C   0  0  0  0  0  0  0  0  0  0  0  0
    5.6575   -2.9651    0.0000 C   0  0  0  0  0  0  0  0  0  0  0  0
    6.3062   -4.3176    0.0000 C   0  0  0  0  0  0  0  0  0  0  0  0
    7.7929   -4.1186    0.0000 C   0  0  0  0  0  0  0  0  0  0  0  0
    8.8278   -5.2045    0.0000 O   0  0  0  0  0  0  0  0  0  0  0  0
  2  1  1  1
  2  3  1  0
  3  4  1  0
  5  4  1  1
  5  6  1  0
  6  7  2  0
  7  8  1  0
  8  9  2  0
  9 10  1  0
  9 11  1  0
 11 12  2  0
 12 13  1  0
 13 14  1  0
 14 15  1  6
 15 16  1  0
 16 17  1  0
 17 18  1  0
 18 19  1  0
 19 20  1  0
 20 21  1  0
 21 22  1  0
 22 23  1  0
 24 23  1  1
 24 25  2  0
 24 26  1  0
 26 27  1  0
 27 28  1  0
 28 29  1  0
 29 30  1  0
 29 31  1  0
 29 32  1  0
 32 33  1  0
 32 34  1  0
 32 35  1  0
 36 14  1  1
 36 37  1  0
 37 38  1  1
 38 39  1  0
 39 40  1  0
 40 41  1  1
 37  2  1  0
 40  2  1  0
 36  5  1  0
 12  6  1  0
M  END
>  <zinc_id>  (1) 
ZINC000003995811

>  <smiles>  (1) 
C[C@]12CC[C@@H]3c4ccc(O)cc4C[C@@H](CCCCCCCCC[S@](=O)CCCC(F)(F)C(F)(F)F)[C@@H]3[C@@H]1CC[C@@H]2O

$$$$
