
     RDKit          3D

 22 26  0  0  0  0  0  0  0  0999 V2000
    4.2847    1.5544   -0.6490 C   0  0  0  0  0  0  0  0  0  0  0  0
    3.6486    1.3058   -0.4783 O   0  0  0  0  0  0  0  0  0  0  0  0
    2.5764    0.4552   -0.6636 C   0  0  0  0  0  0  0  0  0  0  0  0
    2.6043   -0.4674   -1.6939 C   0  0  0  0  0  0  0  0  0  0  0  0
    1.5194   -1.3450   -1.9008 C   0  0  0  0  0  0  0  0  0  0  0  0
    0.4211   -1.2677   -1.0507 C   0  0  0  0  0  0  0  0  0  0  0  0
    0.5036   -0.3225   -0.0696 C   0  0  0  0  0  0  0  0  0  0  0  0
    1.4813    0.5574    0.2108 C   0  0  0  0  0  0  0  0  0  0  0  0
    1.1385    1.3232    1.2788 O   0  0  0  0  0  0  0  0  0  0  0  0
   -0.2990    1.0974    1.6460 C   0  0  1  0  0  0  0  0  0  0  0  0
   -1.0955    2.2834    0.8011 C   0  0  1  0  0  0  0  0  0  0  0  0
   -0.0820    3.3549    1.0167 O   0  0  0  0  0  0  0  0  0  0  0  0
   -0.7790    2.0062   -0.6932 C   0  0  0  0  0  0  0  0  0  0  0  0
   -1.2053    0.8675   -1.1510 C   0  0  0  0  0  0  0  0  0  0  0  0
   -1.9450    0.0482   -0.0215 C   0  0  1  0  0  0  0  0  0  0  0  0
   -2.1296   -1.4230   -0.7290 C   0  0  1  0  0  0  0  0  0  0  0  0
   -0.7585   -2.0375   -1.1224 C   0  0  0  0  0  0  0  0  0  0  0  0
   -2.3573   -2.3232    0.5426 N   0  0  0  0  0  0  0  0  0  0  0  0
   -3.7156   -2.7996    0.3485 C   0  0  0  0  0  0  0  0  0  0  0  0
   -2.3727   -1.4657    1.6971 C   0  0  0  0  0  0  0  0  0  0  0  0
   -0.8631   -1.2006    1.8704 C   0  0  0  0  0  0  0  0  0  0  0  0
   -0.5752   -0.2013    0.8109 C   0  0  1  0  0  0  0  0  0  0  0  0
  1  2  1  0
  2  3  1  0
  3  4  2  0
  4  5  1  0
  5  6  2  0
  6  7  1  0
  7  8  2  0
  8  9  1  0
 10  9  1  6
 10 11  1  0
 11 12  1  1
 11 13  1  0
 13 14  2  0
 15 14  1  6
 15 16  1  0
 16 17  1  1
 16 18  1  0
 18 19  1  0
 18 20  1  0
 20 21  1  0
 22 21  1  1
  8  3  1  0
 22 10  1  0
 17  6  1  0
 22  7  1  0
 22 15  1  0
M  END
>  <zinc_id>  (1) 
ZINC000003806721

>  <smiles>  (1) 
COc1ccc2c3c1O[C@H]1[C@@H](O)C=C[C@H]4[C@@H](C2)N(C)CC[C@]314

$$$$
