
     RDKit          3D

 34 38  0  0  0  0  0  0  0  0999 V2000
   -2.0508    0.4985    2.5798 O   0  0  0  0  0  0  0  0  0  0  0  0
   -1.6903    0.0829    1.4554 C   0  0  0  0  0  0  0  0  0  0  0  0
   -2.5830   -0.7993    0.6372 C   0  0  0  0  0  0  0  0  0  0  0  0
   -2.4694   -2.1482    0.5756 C   0  0  0  0  0  0  0  0  0  0  0  0
   -1.4964   -2.9335    1.2722 C   0  0  0  0  0  0  0  0  0  0  0  0
   -1.4755   -4.2669    1.1142 C   0  0  0  0  0  0  0  0  0  0  0  0
   -2.3187   -4.9737    0.3243 C   0  0  0  0  0  0  0  0  0  0  0  0
   -2.2750   -6.3549    0.1735 O   0  0  0  0  0  0  0  0  0  0  0  0
   -3.2730   -4.2247   -0.3616 C   0  0  0  0  0  0  0  0  0  0  0  0
   -3.3330   -2.8263   -0.2278 C   0  0  0  0  0  0  0  0  0  0  0  0
   -4.2911   -1.5993   -0.8793 S   0  0  0  0  0  0  0  0  0  0  0  0
   -3.5694   -0.2242   -0.1164 C   0  0  0  0  0  0  0  0  0  0  0  0
   -3.9080    1.1960   -0.3125 C   0  0  0  0  0  0  0  0  0  0  0  0
   -4.8987    1.4611   -1.2898 C   0  0  0  0  0  0  0  0  0  0  0  0
   -5.2579    2.7746   -1.5447 C   0  0  0  0  0  0  0  0  0  0  0  0
   -4.6953    3.8306   -0.8927 C   0  0  0  0  0  0  0  0  0  0  0  0
   -5.0484    5.1607   -1.1185 O   0  0  0  0  0  0  0  0  0  0  0  0
   -3.7115    3.5682    0.0745 C   0  0  0  0  0  0  0  0  0  0  0  0
   -3.3589    2.2435    0.3260 C   0  0  0  0  0  0  0  0  0  0  0  0
   -0.3865    0.4628    0.9438 C   0  0  0  0  0  0  0  0  0  0  0  0
   -0.0483    0.5193   -0.3856 C   0  0  0  0  0  0  0  0  0  0  0  0
    1.2065    0.8594   -0.8212 C   0  0  0  0  0  0  0  0  0  0  0  0
    2.2293    1.1691    0.0912 C   0  0  0  0  0  0  0  0  0  0  0  0
    3.4464    1.4919   -0.3286 O   0  0  0  0  0  0  0  0  0  0  0  0
    4.2215    1.7155   -1.3760 C   0  0  0  0  0  0  0  0  0  0  0  0
    5.6423    2.0137   -0.8016 C   0  0  0  0  0  0  0  0  0  0  0  0
    5.9302    0.7512   -0.0830 N   0  0  0  0  0  0  0  0  0  0  0  0
    7.1438    0.8532    0.7287 C   0  0  0  0  0  0  0  0  0  0  0  0
    7.5393   -0.6267    0.9715 C   0  0  0  0  0  0  0  0  0  0  0  0
    8.3965   -1.0096   -0.2582 C   0  0  0  0  0  0  0  0  0  0  0  0
    7.6942   -0.2926   -1.4298 C   0  0  0  0  0  0  0  0  0  0  0  0
    6.1987   -0.2543   -1.1540 C   0  0  0  0  0  0  0  0  0  0  0  0
    1.8717    1.1099    1.4351 C   0  0  0  0  0  0  0  0  0  0  0  0
    0.6183    0.7722    1.8491 C   0  0  0  0  0  0  0  0  0  0  0  0
  1  2  2  0
  2  3  1  0
  3  4  1  0
  4  5  2  0
  5  6  1  0
  6  7  2  0
  7  8  1  0
  7  9  1  0
  9 10  2  0
 10 11  1  0
 11 12  1  0
 12 13  1  0
 13 14  2  0
 14 15  1  0
 15 16  2  0
 16 17  1  0
 16 18  1  0
 18 19  2  0
  2 20  1  0
 20 21  2  0
 21 22  1  0
 22 23  2  0
 23 24  1  0
 24 25  1  0
 25 26  1  0
 26 27  1  0
 27 28  1  0
 28 29  1  0
 29 30  1  0
 30 31  1  0
 31 32  1  0
 23 33  1  0
 33 34  2  0
 12  3  2  0
 19 13  1  0
 34 20  1  0
 10  4  1  0
 32 27  1  0
M  END
>  <zinc_id>  (1) 
ZINC000000538275

>  <smiles>  (1) 
O=C(c1ccc(OCCN2CCCCC2)cc1)c1c(-c2ccc(O)cc2)sc2cc(O)ccc12

$$$$
