
     RDKit          3D

 22 23  0  0  0  0  0  0  0  0999 V2000
    3.8623   -1.3385   -0.5157 C   0  0  0  0  0  0  0  0  0  0  0  0
    4.1522   -0.9385   -0.7029 C   0  0  0  0  0  0  0  0  0  0  0  0
    4.2453   -0.0531    0.4934 C   0  0  0  0  0  0  0  0  0  0  0  0
    5.4460   -1.6827   -1.0318 C   0  0  0  0  0  0  0  0  0  0  0  0
    3.5506   -0.3869   -1.8766 N   0  0  0  0  0  0  0  0  0  0  0  0
    2.3258    0.1135   -1.5300 C   0  0  0  0  0  0  0  0  0  0  0  0
    2.3810    1.4389   -0.5985 C   0  0  1  0  0  0  0  0  0  0  0  0
    3.1338    2.3427   -1.5423 O   0  0  0  0  0  0  0  0  0  0  0  0
    0.9024    1.9473   -1.1587 C   0  0  0  0  0  0  0  0  0  0  0  0
    0.0982    1.1927   -0.3732 O   0  0  0  0  0  0  0  0  0  0  0  0
   -1.2257    1.0486   -0.2322 C   0  0  0  0  0  0  0  0  0  0  0  0
   -1.9788    1.8667   -1.0923 C   0  0  0  0  0  0  0  0  0  0  0  0
   -3.3432    1.8756   -1.1098 C   0  0  0  0  0  0  0  0  0  0  0  0
   -4.0026    1.0318   -0.2313 C   0  0  0  0  0  0  0  0  0  0  0  0
   -3.2766    0.2022    0.6406 C   0  0  0  0  0  0  0  0  0  0  0  0
   -1.9020    0.2259    0.6241 C   0  0  0  0  0  0  0  0  0  0  0  0
   -1.1039   -0.6218    1.5134 C   0  0  0  0  0  0  0  0  0  0  0  0
   -2.0449   -1.1009    2.7309 C   0  0  2  0  0  0  0  0  0  0  0  0
   -1.2409   -2.3691    2.9795 O   0  0  0  0  0  0  0  0  0  0  0  0
   -3.2665   -1.9588    1.9183 C   0  0  2  0  0  0  0  0  0  0  0  0
   -2.6243   -2.2116    0.6043 O   0  0  0  0  0  0  0  0  0  0  0  0
   -4.0883   -0.6241    1.5019 C   0  0  0  0  0  0  0  0  0  0  0  0
  1  2  1  0
  2  3  1  0
  2  4  1  0
  2  5  1  0
  5  6  1  0
  6  7  1  0
  7  8  1  6
  7  9  1  0
  9 10  1  0
 10 11  1  0
 11 12  2  0
 12 13  1  0
 13 14  2  0
 14 15  1  0
 15 16  2  0
 16 17  1  0
 17 18  1  0
 18 19  1  1
 18 20  1  0
 20 21  1  6
 20 22  1  0
 16 11  1  0
 22 15  1  0
M  END
>  <zinc_id>  (1) 
ZINC000003812974

>  <smiles>  (1) 
CC(C)(C)NC[C@@H](O)COc1cccc2c1C[C@H](O)[C@H](O)C2

$$$$
