
     RDKit          3D

 29 32  0  0  0  0  0  0  0  0999 V2000
    4.2946   -0.7184    1.6060 C   0  0  0  0  0  0  0  0  0  0  0  0
    3.1740   -1.3851    0.6596 C   0  0  1  0  0  0  0  0  0  0  0  0
    1.9364   -1.0204    1.6661 C   0  0  0  0  0  0  0  0  0  0  0  0
    0.9870   -0.9558    0.3731 C   0  0  1  0  0  0  0  0  0  0  0  0
   -0.3151   -0.0795    0.9620 C   0  0  2  0  0  0  0  0  0  0  0  0
   -1.0914   -1.2912    1.6710 C   0  0  0  0  0  0  0  0  0  0  0  0
   -2.3077   -0.2946    2.2600 C   0  0  2  0  0  0  0  0  0  0  0  0
   -3.1232   -1.4764    2.6363 F   0  0  0  0  0  0  0  0  0  0  0  0
   -3.0050   -0.0284    0.8556 C   0  0  0  0  0  0  0  0  0  0  0  0
   -4.2104   -0.3887    0.7685 C   0  0  0  0  0  0  0  0  0  0  0  0
   -5.0118   -0.2301   -0.4329 C   0  0  0  0  0  0  0  0  0  0  0  0
   -6.1996   -0.5848   -0.5231 O   0  0  0  0  0  0  0  0  0  0  0  0
   -4.3251    0.3927   -1.5780 C   0  0  0  0  0  0  0  0  0  0  0  0
   -3.1131    0.7214   -1.3731 C   0  0  0  0  0  0  0  0  0  0  0  0
   -2.2397    0.6167   -0.2270 C   0  0  1  0  0  0  0  0  0  0  0  0
   -1.8720    2.0664    0.1780 C   0  0  0  0  0  0  0  0  0  0  0  0
   -1.1382   -0.2086   -0.4221 C   0  0  2  0  0  0  0  0  0  0  0  0
   -1.5087   -1.4633   -0.6992 F   0  0  0  0  0  0  0  0  0  0  0  0
   -0.0951   -0.0030   -1.6174 C   0  0  1  0  0  0  0  0  0  0  0  0
   -0.9022    0.9950   -2.4002 O   0  0  0  0  0  0  0  0  0  0  0  0
    0.8461    1.1395   -0.9219 C   0  0  0  0  0  0  0  0  0  0  0  0
    1.7361    0.4443   -0.0355 C   0  0  1  0  0  0  0  0  0  0  0  0
    1.8395    1.2835    1.2275 C   0  0  0  0  0  0  0  0  0  0  0  0
    2.9785   -0.1582   -0.3744 C   0  0  2  0  0  0  0  0  0  0  0  0
    2.7945   -0.9268   -1.5626 O   0  0  0  0  0  0  0  0  0  0  0  0
    4.1704    0.6210   -0.5639 C   0  0  0  0  0  0  0  0  0  0  0  0
    4.4529    1.4220    0.3414 O   0  0  0  0  0  0  0  0  0  0  0  0
    5.0119    0.5720   -1.6216 C   0  0  0  0  0  0  0  0  0  0  0  0
    6.2364    0.9390   -2.4845 Cl  0  0  0  0  0  0  0  0  0  0  0  0
  2  1  1  1
  2  3  1  0
  4  3  1  1
  4  5  1  0
  5  6  1  1
  6  7  1  0
  7  8  1  1
  7  9  1  0
  9 10  2  0
 10 11  1  0
 11 12  2  0
 11 13  1  0
 13 14  2  0
 14 15  1  0
 15 16  1  1
 15 17  1  0
 17 18  1  6
 17 19  1  0
 19 20  1  6
 19 21  1  0
 21 22  1  0
 22 23  1  1
 22 24  1  0
 24 25  1  6
 24 26  1  0
 26 27  2  0
 26 28  1  0
 28 29  1  0
 24  2  1  0
 22  4  1  0
 17  5  1  0
 15  9  1  0
M  END
>  <zinc_id>  (1) 
ZINC000004214603

>  <smiles>  (1) 
C[C@H]1C[C@H]2[C@@H]3C[C@H](F)C4=CC(=O)C=C[C@]4(C)[C@@]3(F)[C@@H](O)C[C@]2(C)[C@@]1(O)C(=O)CCl

$$$$
