
     RDKit          3D

 18 17  0  0  0  0  0  0  0  0999 V2000
   -2.3035   -3.6141   -0.2264 C   0  0  0  0  0  0  0  0  0  0  0  0
   -1.9875   -3.3809    0.0726 C   0  0  0  0  0  0  0  0  0  0  0  0
   -1.0349   -2.7840    1.0890 C   0  0  0  0  0  0  0  0  0  0  0  0
   -0.5986   -1.4350    0.4096 C   0  0  1  0  0  0  0  0  0  0  0  0
    0.0796   -1.6740   -0.8742 C   0  0  0  0  0  0  0  0  0  0  0  0
   -1.9889   -0.8087    0.0485 C   0  0  0  0  0  0  0  0  0  0  0  0
   -1.7474    0.4253   -0.5798 O   0  0  0  0  0  0  0  0  0  0  0  0
   -2.8617    1.1800   -1.0076 C   0  0  0  0  0  0  0  0  0  0  0  0
   -2.7334    2.4310   -1.6555 N   0  0  0  0  0  0  0  0  0  0  0  0
   -4.0092    0.6610   -0.7726 O   0  0  0  0  0  0  0  0  0  0  0  0
    0.0589   -0.6637    1.4599 C   0  0  0  0  0  0  0  0  0  0  0  0
    0.6087    0.5769    1.1900 O   0  0  0  0  0  0  0  0  0  0  0  0
    1.7631    0.8002    0.4498 C   0  0  0  0  0  0  0  0  0  0  0  0
    2.3899   -0.1872    0.0123 O   0  0  0  0  0  0  0  0  0  0  0  0
    2.2704    2.1337    0.1650 N   0  0  0  0  0  0  0  0  0  0  0  0
    3.5007    2.2376   -0.6310 C   0  0  0  0  0  0  0  0  0  0  0  0
    4.4313    3.2340    0.0008 C   0  0  0  0  0  0  0  0  0  0  0  0
    4.1628    0.8681   -0.5969 C   0  0  0  0  0  0  0  0  0  0  0  0
  1  2  1  0
  2  3  1  0
  3  4  1  0
  4  5  1  6
  4  6  1  0
  6  7  1  0
  7  8  1  0
  8  9  1  0
  8 10  2  0
  4 11  1  0
 11 12  1  0
 12 13  1  0
 13 14  2  0
 13 15  1  0
 15 16  1  0
 16 17  1  0
 16 18  1  0
M  END
>  <zinc_id>  (1) 
ZINC000001530950

>  <smiles>  (1) 
CCC[C@@](C)(COC(N)=O)COC(=O)NC(C)C

$$$$
