
     RDKit          3D

 28 31  0  0  0  0  0  0  0  0999 V2000
   -4.3182    2.0077    3.6846 C   0  0  0  0  0  0  0  0  0  0  0  0
   -5.0166    1.8459    2.5056 O   0  0  0  0  0  0  0  0  0  0  0  0
   -4.4175    1.1403    1.4455 C   0  0  0  0  0  0  0  0  0  0  0  0
   -3.1563    0.6125    1.5629 C   0  0  0  0  0  0  0  0  0  0  0  0
   -2.5457   -0.0967    0.5072 C   0  0  0  0  0  0  0  0  0  0  0  0
   -3.2373   -0.2572   -0.6656 C   0  0  0  0  0  0  0  0  0  0  0  0
   -4.5046    0.2751   -0.7768 C   0  0  0  0  0  0  0  0  0  0  0  0
   -5.0950    0.9654    0.2580 C   0  0  0  0  0  0  0  0  0  0  0  0
   -6.3740    1.4973    0.1330 O   0  0  0  0  0  0  0  0  0  0  0  0
   -7.1334    1.3617   -1.0498 C   0  0  0  0  0  0  0  0  0  0  0  0
   -2.4274   -0.9790   -1.6243 C   0  0  0  0  0  0  0  0  0  0  0  0
   -2.6702   -1.7436   -2.5451 O   0  0  0  0  0  0  0  0  0  0  0  0
   -0.9760   -0.5301   -1.2003 C   0  0  2  0  0  0  0  0  0  0  0  0
   -0.2799   -1.9749   -1.4537 C   0  0  0  0  0  0  0  0  0  0  0  0
    1.1218   -1.6721   -1.1039 C   0  0  0  0  0  0  0  0  0  0  0  0
    1.3555   -1.2151    0.2628 C   0  0  0  0  0  0  0  0  0  0  0  0
    2.8150   -1.3559    0.6225 C   0  0  0  0  0  0  0  0  0  0  0  0
    3.6030   -1.8202   -0.5075 N   0  0  0  0  0  0  0  0  0  0  0  0
    5.0031   -1.6690   -0.1501 C   0  0  0  0  0  0  0  0  0  0  0  0
    5.3538   -0.2536    0.1459 C   0  0  0  0  0  0  0  0  0  0  0  0
    5.7921    0.5791   -0.8653 C   0  0  0  0  0  0  0  0  0  0  0  0
    6.1250    1.8992   -0.6188 C   0  0  0  0  0  0  0  0  0  0  0  0
    6.0219    2.4064    0.6559 C   0  0  0  0  0  0  0  0  0  0  0  0
    5.5912    1.6100    1.6818 C   0  0  0  0  0  0  0  0  0  0  0  0
    5.2672    0.2993    1.4039 C   0  0  0  0  0  0  0  0  0  0  0  0
    3.3831   -0.9996   -1.6843 C   0  0  0  0  0  0  0  0  0  0  0  0
    1.9816   -1.1491   -2.1711 C   0  0  0  0  0  0  0  0  0  0  0  0
   -1.2621   -0.7840    0.3690 C   0  0  0  0  0  0  0  0  0  0  0  0
  1  2  1  0
  2  3  1  0
  3  4  2  0
  4  5  1  0
  5  6  2  0
  6  7  1  0
  7  8  2  0
  8  9  1  0
  9 10  1  0
  6 11  1  0
 11 12  2  0
 11 13  1  0
 13 14  1  6
 14 15  1  0
 15 16  1  0
 16 17  1  0
 17 18  1  0
 18 19  1  0
 19 20  1  0
 20 21  2  0
 21 22  1  0
 22 23  2  0
 23 24  1  0
 24 25  2  0
 18 26  1  0
 26 27  1  0
 13 28  1  0
  8  3  1  0
 27 15  1  0
 28  5  1  0
 25 20  1  0
M  END
>  <zinc_id>  (1) 
ZINC000000897251

>  <smiles>  (1) 
COc1cc2c(cc1OC)C(=O)[C@H](CC1CCN(Cc3ccccc3)CC1)C2

$$$$
