
     RDKit          3D

 18 19  0  0  0  0  0  0  0  0999 V2000
    4.5848    0.9163    0.2168 C   0  0  0  0  0  0  0  0  0  0  0  0
    3.1063    1.1082    0.2981 C   0  0  0  0  0  0  0  0  0  0  0  0
    2.6036    1.4332    1.6742 C   0  0  0  0  0  0  0  0  0  0  0  0
    2.4356   -0.0142   -0.3113 N   0  0  0  0  0  0  0  0  0  0  0  0
    2.7997   -1.2013    0.4790 C   0  0  0  0  0  0  0  0  0  0  0  0
    1.9351   -2.3400   -0.3876 C   0  0  1  0  0  0  0  0  0  0  0  0
    2.4143   -3.4877    0.5476 O   0  0  0  0  0  0  0  0  0  0  0  0
    0.5613   -2.0897    0.5338 C   0  0  0  0  0  0  0  0  0  0  0  0
   -0.0120   -1.0394   -0.2023 O   0  0  0  0  0  0  0  0  0  0  0  0
   -1.1949   -0.4108    0.1010 C   0  0  0  0  0  0  0  0  0  0  0  0
   -1.9015   -0.8174    1.2078 C   0  0  0  0  0  0  0  0  0  0  0  0
   -3.0833   -0.1875    1.5085 C   0  0  0  0  0  0  0  0  0  0  0  0
   -3.5643    0.8253    0.7357 C   0  0  0  0  0  0  0  0  0  0  0  0
   -2.8383    1.2302   -0.3861 C   0  0  0  0  0  0  0  0  0  0  0  0
   -3.0414    2.1622   -1.3096 N   0  0  0  0  0  0  0  0  0  0  0  0
   -2.0262    2.1457   -2.1886 C   0  0  0  0  0  0  0  0  0  0  0  0
   -1.1286    1.1675   -1.8254 C   0  0  0  0  0  0  0  0  0  0  0  0
   -1.6502    0.5994   -0.6915 C   0  0  0  0  0  0  0  0  0  0  0  0
  1  2  1  0
  2  3  1  0
  2  4  1  0
  4  5  1  0
  5  6  1  0
  6  7  1  1
  6  8  1  0
  8  9  1  0
  9 10  1  0
 10 11  2  0
 11 12  1  0
 12 13  2  0
 13 14  1  0
 14 15  1  0
 15 16  1  0
 16 17  2  0
 17 18  1  0
 18 10  1  0
 18 14  2  0
M  END
>  <zinc_id>  (1) 
ZINC000000056646

>  <smiles>  (1) 
CC(C)NC[C@@H](O)COc1cccc2[nH]ccc12

$$$$
