
     RDKit          3D

 21 21  0  0  0  0  0  0  0  0999 V2000
    4.3804   -2.2059    0.7985 C   0  0  0  0  0  0  0  0  0  0  0  0
    3.5745   -1.0868    0.4252 N   0  0  0  0  0  0  0  0  0  0  0  0
    3.4168   -0.5517   -0.8611 C   0  0  0  0  0  0  0  0  0  0  0  0
    3.8971    0.6712   -1.1424 C   0  0  0  0  0  0  0  0  0  0  0  0
    4.5501    1.3529   -0.0797 N   0  0  0  0  0  0  0  0  0  0  0  0
    4.3540    2.5958   -0.0346 O   0  0  0  0  0  0  0  0  0  0  0  0
    5.3472    0.7379    0.8475 O   0  0  0  0  0  0  0  0  0  0  0  0
    2.7728   -1.2593   -1.8857 N   0  0  0  0  0  0  0  0  0  0  0  0
    1.4100   -1.6297   -1.9979 C   0  0  0  0  0  0  0  0  0  0  0  0
    0.4644   -0.4708   -2.1999 C   0  0  0  0  0  0  0  0  0  0  0  0
    0.5745    0.6362   -0.7700 S   0  0  0  0  0  0  0  0  0  0  0  0
   -0.0927   -0.2318    0.6919 C   0  0  0  0  0  0  0  0  0  0  0  0
   -1.5554   -0.4734    0.5393 C   0  0  0  0  0  0  0  0  0  0  0  0
   -2.0885   -1.5889   -0.0493 C   0  0  0  0  0  0  0  0  0  0  0  0
   -3.4592   -1.4217    0.0126 C   0  0  0  0  0  0  0  0  0  0  0  0
   -3.7093   -0.2105    0.6364 C   0  0  0  0  0  0  0  0  0  0  0  0
   -5.0792    0.3009    0.8769 C   0  0  0  0  0  0  0  0  0  0  0  0
   -5.5321    1.2240   -0.1080 N   0  0  0  0  0  0  0  0  0  0  0  0
   -5.5839    0.7485   -1.4518 C   0  0  0  0  0  0  0  0  0  0  0  0
   -5.0912    2.5701    0.0677 C   0  0  0  0  0  0  0  0  0  0  0  0
   -2.5505    0.2929    0.9190 O   0  0  0  0  0  0  0  0  0  0  0  0
  1  2  1  0
  2  3  1  0
  3  4  2  0
  4  5  1  0
  5  6  2  0
  5  7  1  0
  3  8  1  0
  8  9  1  0
  9 10  1  0
 10 11  1  0
 11 12  1  0
 12 13  1  0
 13 14  2  0
 14 15  1  0
 15 16  2  0
 16 17  1  0
 17 18  1  0
 18 19  1  0
 18 20  1  0
 16 21  1  0
 21 13  1  0
M  CHG  2   5   1   7  -1
M  END
>  <zinc_id>  (1) 
ZINC000001530728

>  <smiles>  (1) 
CN/C(=C\[N+](=O)[O-])NCCSCc1ccc(CN(C)C)o1

$$$$
