
     RDKit          3D

 18 18  0  0  0  0  0  0  0  0999 V2000
   -3.3895   -1.7308   -0.2507 C   0  0  0  0  0  0  0  0  0  0  0  0
   -3.3562   -1.6601   -0.4098 O   0  0  0  0  0  0  0  0  0  0  0  0
   -3.1761   -0.6902   -1.3766 C   0  0  0  0  0  0  0  0  0  0  0  0
   -1.9577    0.2815   -0.9641 C   0  0  1  0  0  0  0  0  0  0  0  0
   -2.6054    0.5022    0.4780 N   0  0  0  0  0  0  0  0  0  0  0  0
   -3.2530    1.7718    0.5246 C   0  0  0  0  0  0  0  0  0  0  0  0
   -3.8691    2.1332    1.8252 C   0  0  0  0  0  0  0  0  0  0  0  0
   -3.3328    2.5831   -0.4120 O   0  0  0  0  0  0  0  0  0  0  0  0
   -0.8666   -0.6327   -0.5755 C   0  0  0  0  0  0  0  0  0  0  0  0
   -0.7861   -1.8806   -0.3304 O   0  0  0  0  0  0  0  0  0  0  0  0
    0.4475    0.0326   -0.3656 N   0  0  0  0  0  0  0  0  0  0  0  0
    1.4133   -0.9067    0.0782 C   0  0  0  0  0  0  0  0  0  0  0  0
    2.7723   -0.4455    0.3310 C   0  0  0  0  0  0  0  0  0  0  0  0
    3.2338    0.1478    1.4981 C   0  0  0  0  0  0  0  0  0  0  0  0
    4.4910    0.6091    1.7109 C   0  0  0  0  0  0  0  0  0  0  0  0
    5.4280    0.4999    0.7058 C   0  0  0  0  0  0  0  0  0  0  0  0
    5.0569   -0.0746   -0.4802 C   0  0  0  0  0  0  0  0  0  0  0  0
    3.7496   -0.5401   -0.6669 C   0  0  0  0  0  0  0  0  0  0  0  0
  1  2  1  0
  2  3  1  0
  4  3  1  6
  4  5  1  0
  5  6  1  0
  6  7  1  0
  6  8  2  0
  4  9  1  0
  9 10  2  0
  9 11  1  0
 11 12  1  0
 12 13  1  0
 13 14  2  0
 14 15  1  0
 15 16  2  0
 16 17  1  0
 17 18  2  0
 18 13  1  0
M  END
>  <zinc_id>  (1) 
ZINC000000007673

>  <smiles>  (1) 
COC[C@@H](NC(C)=O)C(=O)NCc1ccccc1

$$$$
