
     RDKit          3D

 21 21  0  0  0  0  0  0  0  0999 V2000
   -7.5731   -1.2240   -1.6378 C   0  0  0  0  0  0  0  0  0  0  0  0
   -6.9846   -0.1745   -0.9718 C   0  0  0  0  0  0  0  0  0  0  0  0
   -5.5113    0.0226   -1.2052 C   0  0  0  0  0  0  0  0  0  0  0  0
   -5.0963    1.2375   -0.3643 C   0  0  0  0  0  0  0  0  0  0  0  0
   -3.4874    1.3152   -0.7267 C   0  0  1  0  0  0  0  0  0  0  0  0
   -3.2455    2.6291    0.2372 C   0  0  0  0  0  0  0  0  0  0  0  0
   -1.7530    2.8937    0.0516 C   0  0  0  0  0  0  0  0  0  0  0  0
   -3.0817    0.2506    0.4632 C   0  0  0  0  0  0  0  0  0  0  0  0
   -1.6689    0.1902    0.2969 O   0  0  0  0  0  0  0  0  0  0  0  0
   -0.9301   -0.6194    1.1292 C   0  0  0  0  0  0  0  0  0  0  0  0
   -1.5279   -1.2826    2.0133 O   0  0  0  0  0  0  0  0  0  0  0  0
    0.5153   -0.7351    1.0228 C   0  0  0  0  0  0  0  0  0  0  0  0
    1.2470   -0.1024    0.1522 C   0  0  0  0  0  0  0  0  0  0  0  0
    2.7018   -0.2516    0.0839 C   0  0  0  0  0  0  0  0  0  0  0  0
    3.4063   -1.0742    0.9373 C   0  0  0  0  0  0  0  0  0  0  0  0
    4.7842   -1.2003    0.8546 C   0  0  0  0  0  0  0  0  0  0  0  0
    5.5010   -0.5005   -0.0929 C   0  0  0  0  0  0  0  0  0  0  0  0
    6.8821   -0.6488   -0.1499 O   0  0  0  0  0  0  0  0  0  0  0  0
    7.5923   -1.4932    0.7284 C   0  0  0  0  0  0  0  0  0  0  0  0
    4.8088    0.3244   -0.9510 C   0  0  0  0  0  0  0  0  0  0  0  0
    3.4211    0.4433   -0.8582 C   0  0  0  0  0  0  0  0  0  0  0  0
  1  2  1  0
  2  3  1  0
  3  4  1  0
  5  4  1  1
  5  6  1  0
  6  7  1  0
  5  8  1  0
  8  9  1  0
  9 10  1  0
 10 11  2  0
 10 12  1  0
 12 13  2  0
 13 14  1  0
 14 15  2  0
 15 16  1  0
 16 17  2  0
 17 18  1  0
 18 19  1  0
 17 20  1  0
 20 21  2  0
 21 14  1  0
M  END
>  <zinc_id>  (1) 
ZINC000001633887

>  <smiles>  (1) 
CCCC[C@@H](CC)COC(=O)/C=C/c1ccc(OC)cc1

$$$$
