
     RDKit          3D

 17 18  0  0  0  0  0  0  0  0999 V2000
    4.9034    0.9974    0.0384 N   0  0  0  0  0  0  0  0  0  0  0  0
    3.8395    0.1276    0.3967 C   0  0  0  0  0  0  0  0  0  0  0  0
    4.0135   -0.6374    1.3702 O   0  0  0  0  0  0  0  0  0  0  0  0
    2.5884    0.1231   -0.3397 C   0  0  0  0  0  0  0  0  0  0  0  0
    1.5210   -0.6981   -0.0464 C   0  0  0  0  0  0  0  0  0  0  0  0
    0.5233   -0.4522   -0.9154 N   0  0  0  0  0  0  0  0  0  0  0  0
   -0.7698   -1.1094   -0.9419 C   0  0  0  0  0  0  0  0  0  0  0  0
   -1.7805   -0.4310   -0.1191 C   0  0  0  0  0  0  0  0  0  0  0  0
   -2.3466    0.7279   -0.6049 C   0  0  0  0  0  0  0  0  0  0  0  0
   -1.9817    1.2422   -1.8225 F   0  0  0  0  0  0  0  0  0  0  0  0
   -3.2920    1.3451    0.1838 C   0  0  0  0  0  0  0  0  0  0  0  0
   -3.6733    0.8400    1.4171 C   0  0  0  0  0  0  0  0  0  0  0  0
   -3.0718   -0.3194    1.8459 C   0  0  0  0  0  0  0  0  0  0  0  0
   -2.1269   -0.9824    1.1135 C   0  0  0  0  0  0  0  0  0  0  0  0
   -1.5315   -2.1309    1.5384 F   0  0  0  0  0  0  0  0  0  0  0  0
    0.9791    0.5044   -1.7240 N   0  0  0  0  0  0  0  0  0  0  0  0
    2.2058    0.8532   -1.3900 N   0  0  0  0  0  0  0  0  0  0  0  0
  1  2  1  0
  2  3  2  0
  2  4  1  0
  4  5  2  0
  5  6  1  0
  6  7  1  0
  7  8  1  0
  8  9  2  0
  9 10  1  0
  9 11  1  0
 11 12  2  0
 12 13  1  0
 13 14  2  0
 14 15  1  0
  6 16  1  0
 16 17  2  0
 17  4  1  0
 14  8  1  0
M  END
>  <zinc_id>  (1) 
ZINC000000007782

>  <smiles>  (1) 
NC(=O)c1cn(Cc2c(F)cccc2F)nn1

$$$$
