
     RDKit          3D

 26 31  0  0  0  0  0  0  0  0999 V2000
   -5.1492    0.4956    0.0841 O   0  0  0  0  0  0  0  0  0  0  0  0
   -3.9663    0.1718    0.5857 C   0  0  0  0  0  0  0  0  0  0  0  0
   -3.8102    0.0174    1.9744 C   0  0  0  0  0  0  0  0  0  0  0  0
   -2.5589   -0.3260    2.5197 C   0  0  0  0  0  0  0  0  0  0  0  0
   -1.5043   -0.5061    1.6723 C   0  0  0  0  0  0  0  0  0  0  0  0
   -1.7534   -0.3346    0.3431 C   0  0  0  0  0  0  0  0  0  0  0  0
   -2.8969   -0.0086   -0.2844 C   0  0  0  0  0  0  0  0  0  0  0  0
   -2.6942    0.0577   -1.6077 O   0  0  0  0  0  0  0  0  0  0  0  0
   -1.2749   -0.2922   -1.9667 C   0  0  1  0  0  0  0  0  0  0  0  0
   -0.6833    1.2673   -2.3441 C   0  0  1  0  0  0  0  0  0  0  0  0
   -1.8536    1.6367   -3.1800 O   0  0  0  0  0  0  0  0  0  0  0  0
   -1.2092    2.0342   -1.0100 C   0  0  0  0  0  0  0  0  0  0  0  0
   -0.0525    1.9216   -0.0745 C   0  0  0  0  0  0  0  0  0  0  0  0
    0.4017    0.4620   -0.1988 C   0  0  1  0  0  0  0  0  0  0  0  0
    1.4977    0.4656   -1.0507 O   0  0  0  0  0  0  0  0  0  0  0  0
    0.9135    0.2020    1.3050 C   0  0  1  0  0  0  0  0  0  0  0  0
   -0.1206   -0.8616    1.9316 C   0  0  0  0  0  0  0  0  0  0  0  0
    1.9232   -0.9415    0.8355 N   0  0  0  0  0  0  0  0  0  0  0  0
    3.0554   -0.5093    1.2720 C   0  0  0  0  0  0  0  0  0  0  0  0
    4.4271   -0.9062    1.1313 C   0  0  0  0  0  0  0  0  0  0  0  0
    5.3484    0.0323    1.9466 C   0  0  0  0  0  0  0  0  0  0  0  0
    6.1093    0.4398    0.7159 C   0  0  0  0  0  0  0  0  0  0  0  0
    5.1174   -0.2904   -0.1210 C   0  0  0  0  0  0  0  0  0  0  0  0
    1.3323   -1.9080    0.1768 C   0  0  0  0  0  0  0  0  0  0  0  0
    0.0219   -1.8426   -0.5032 C   0  0  0  0  0  0  0  0  0  0  0  0
   -0.6204   -0.4771   -0.5361 C   0  0  1  0  0  0  0  0  0  0  0  0
  1  2  1  0
  2  3  2  0
  3  4  1  0
  4  5  2  0
  5  6  1  0
  6  7  2  0
  7  8  1  0
  9  8  1  1
  9 10  1  0
 10 11  1  6
 10 12  1  0
 12 13  1  0
 13 14  1  0
 14 15  1  6
 14 16  1  0
 16 17  1  1
 16 18  1  0
 18 19  1  0
 19 20  1  0
 20 21  1  0
 21 22  1  0
 22 23  1  0
 18 24  1  0
 24 25  1  0
 26 25  1  6
  7  2  1  0
 26  9  1  0
 17  5  1  0
 23 20  1  0
 26  6  1  0
 26 14  1  0
M  END
>  <zinc_id>  (1) 
ZINC000003812989

>  <smiles>  (1) 
Oc1ccc2c3c1O[C@H]1[C@@H](O)CC[C@@]4(O)[C@@H](C2)N(CC2CCC2)CC[C@]314

$$$$
