
     RDKit          3D

 21 21  0  0  0  0  0  0  0  0999 V2000
    7.3081    1.0839   -0.8878 C   0  0  0  0  0  0  0  0  0  0  0  0
    6.4565    0.6447   -0.5468 O   0  0  0  0  0  0  0  0  0  0  0  0
    5.1675    1.1308   -0.5119 C   0  0  0  0  0  0  0  0  0  0  0  0
    4.9558    2.2847   -0.9550 O   0  0  0  0  0  0  0  0  0  0  0  0
    3.9893    0.3623    0.0263 C   0  0  0  0  0  0  0  0  0  0  0  0
    2.9884    0.2908   -1.1169 C   0  0  0  0  0  0  0  0  0  0  0  0
    1.7873   -0.4523   -0.6907 C   0  0  0  0  0  0  0  0  0  0  0  0
    0.7175    0.2508   -0.1702 C   0  0  0  0  0  0  0  0  0  0  0  0
   -0.4332   -0.3788    0.2640 C   0  0  0  0  0  0  0  0  0  0  0  0
   -0.5422   -1.7307    0.1898 C   0  0  0  0  0  0  0  0  0  0  0  0
   -1.6478   -2.4396    0.6020 O   0  0  0  0  0  0  0  0  0  0  0  0
   -2.7595   -1.7727    1.1342 C   0  0  0  0  0  0  0  0  0  0  0  0
   -3.2793   -0.7685   -0.0963 C   0  0  1  0  0  0  0  0  0  0  0  0
   -3.5173   -1.9728   -1.0254 O   0  0  0  0  0  0  0  0  0  0  0  0
   -4.8388   -0.7991    0.4422 C   0  0  0  0  0  0  0  0  0  0  0  0
   -4.9601    0.2698    1.3780 N   0  0  0  0  0  0  0  0  0  0  0  0
   -4.9017    1.5943    0.8674 C   0  0  0  0  0  0  0  0  0  0  0  0
   -3.5752    1.8868    0.2246 C   0  0  0  0  0  0  0  0  0  0  0  0
   -5.0967    2.6043    1.9659 C   0  0  0  0  0  0  0  0  0  0  0  0
    0.5199   -2.4657   -0.3309 C   0  0  0  0  0  0  0  0  0  0  0  0
    1.6614   -1.8332   -0.7624 C   0  0  0  0  0  0  0  0  0  0  0  0
  1  2  1  0
  2  3  1  0
  3  4  2  0
  3  5  1  0
  5  6  1  0
  6  7  1  0
  7  8  2  0
  8  9  1  0
  9 10  2  0
 10 11  1  0
 11 12  1  0
 12 13  1  0
 13 14  1  6
 13 15  1  0
 15 16  1  0
 16 17  1  0
 17 18  1  0
 17 19  1  0
 10 20  1  0
 20 21  2  0
 21  7  1  0
M  END
>  <zinc_id>  (1) 
ZINC000000896523

>  <smiles>  (1) 
COC(=O)CCc1ccc(OC[C@@H](O)CNC(C)C)cc1

$$$$
