
     RDKit          3D

 25 27  0  0  0  0  0  0  0  0999 V2000
   -5.0661   -1.8611    1.3072 C   0  0  0  0  0  0  0  0  0  0  0  0
   -3.8790   -1.5096    0.6962 C   0  0  0  0  0  0  0  0  0  0  0  0
   -3.8015   -0.3422    0.0528 C   0  0  0  0  0  0  0  0  0  0  0  0
   -4.9799    0.5054    0.0306 C   0  0  0  0  0  0  0  0  0  0  0  0
   -4.9753    1.6015   -0.5302 O   0  0  0  0  0  0  0  0  0  0  0  0
   -6.1288    0.0673    0.6507 O   0  0  0  0  0  0  0  0  0  0  0  0
   -2.6444    0.1270   -0.6112 N   0  0  0  0  0  0  0  0  0  0  0  0
   -1.8843    1.2836   -0.9135 C   0  0  0  0  0  0  0  0  0  0  0  0
   -1.8050    2.4902   -0.8434 O   0  0  0  0  0  0  0  0  0  0  0  0
   -0.7551    0.3725   -1.6106 C   0  0  1  0  0  0  0  0  0  0  0  0
    0.1672    0.3120   -0.3287 N   0  0  0  0  0  0  0  0  0  0  0  0
    1.3092    1.1633   -0.4288 C   0  0  0  0  0  0  0  0  0  0  0  0
    1.5257    1.8256   -1.3965 O   0  0  0  0  0  0  0  0  0  0  0  0
    2.2670    1.1654    0.8659 C   0  0  2  0  0  0  0  0  0  0  0  0
    3.0194    2.5638    0.4753 N   0  0  0  0  0  0  0  0  0  0  0  0
    3.4461    0.2745    0.1975 C   0  0  0  0  0  0  0  0  0  0  0  0
    3.8003    0.4436   -1.0584 C   0  0  0  0  0  0  0  0  0  0  0  0
    4.8643   -0.2921   -1.5603 C   0  0  0  0  0  0  0  0  0  0  0  0
    5.5427   -1.1971   -0.7412 C   0  0  0  0  0  0  0  0  0  0  0  0
    6.5953   -1.9263   -1.2409 O   0  0  0  0  0  0  0  0  0  0  0  0
    5.1194   -1.3303    0.5696 C   0  0  0  0  0  0  0  0  0  0  0  0
    4.0578   -0.5977    1.0779 C   0  0  0  0  0  0  0  0  0  0  0  0
   -1.8029   -0.8810   -1.3189 C   0  0  1  0  0  0  0  0  0  0  0  0
   -1.2221   -1.7798    0.2218 S   0  0  0  0  0  0  0  0  0  0  0  0
   -2.7700   -2.4783    0.8254 C   0  0  0  0  0  0  0  0  0  0  0  0
  1  2  1  0
  2  3  2  0
  3  4  1  0
  4  5  2  0
  4  6  1  0
  3  7  1  0
  7  8  1  0
  8  9  2  0
  8 10  1  0
 10 11  1  1
 11 12  1  0
 12 13  2  0
 12 14  1  0
 14 15  1  6
 14 16  1  0
 16 17  2  0
 17 18  1  0
 18 19  2  0
 19 20  1  0
 19 21  1  0
 21 22  2  0
 10 23  1  0
 23 24  1  1
 24 25  1  0
 25  2  1  0
 23  7  1  0
 22 16  1  0
M  END
>  <zinc_id>  (1) 
ZINC000003830391

>  <smiles>  (1) 
CC1=C(C(=O)O)N2C(=O)[C@@H](NC(=O)[C@H](N)c3ccc(O)cc3)[C@H]2SC1

$$$$
