
     RDKit          3D

 25 27  0  0  0  0  0  0  0  0999 V2000
    5.4865   -0.7220    0.6046 C   0  0  0  0  0  0  0  0  0  0  0  0
    4.7029   -0.4860   -0.4522 N   0  0  0  0  0  0  0  0  0  0  0  0
    5.2373   -1.1443   -1.6909 C   0  0  0  0  0  0  0  0  0  0  0  0
    4.7435    0.9302   -0.6819 C   0  0  0  0  0  0  0  0  0  0  0  0
    4.1873    1.6039    0.6123 C   0  0  0  0  0  0  0  0  0  0  0  0
    2.7834    0.9448    0.8757 C   0  0  0  0  0  0  0  0  0  0  0  0
    2.4776    0.4355   -0.6894 C   0  0  2  0  0  0  0  0  0  0  0  0
    1.2065   -0.2591   -0.5009 O   0  0  0  0  0  0  0  0  0  0  0  0
    0.0154    0.3628   -0.3455 C   0  0  0  0  0  0  0  0  0  0  0  0
    0.2167    1.6134   -0.1959 O   0  0  0  0  0  0  0  0  0  0  0  0
   -1.3616   -0.2000   -0.3356 C   0  0  0  0  0  0  0  0  0  0  0  0
   -1.4678   -0.9285   -1.6002 O   0  0  0  0  0  0  0  0  0  0  0  0
   -2.2764    0.9186   -0.5322 C   0  0  0  0  0  0  0  0  0  0  0  0
   -3.6248    0.7907   -0.4244 C   0  0  0  0  0  0  0  0  0  0  0  0
   -4.4993    1.9203   -0.6664 C   0  0  0  0  0  0  0  0  0  0  0  0
   -3.8818    3.0435   -0.9886 C   0  0  0  0  0  0  0  0  0  0  0  0
   -2.5715    3.3017   -1.1244 C   0  0  0  0  0  0  0  0  0  0  0  0
   -1.7544    2.1535   -0.8694 C   0  0  0  0  0  0  0  0  0  0  0  0
   -1.7172   -1.1688    0.6869 C   0  0  0  0  0  0  0  0  0  0  0  0
   -2.1090   -2.4662    0.2412 C   0  0  0  0  0  0  0  0  0  0  0  0
   -2.5358   -3.4653    1.0598 C   0  0  0  0  0  0  0  0  0  0  0  0
   -2.6052   -3.2337    2.4252 C   0  0  0  0  0  0  0  0  0  0  0  0
   -2.2246   -1.9821    2.8609 C   0  0  0  0  0  0  0  0  0  0  0  0
   -1.7941   -0.9709    2.0341 C   0  0  0  0  0  0  0  0  0  0  0  0
    3.3663   -0.9922   -0.3027 C   0  0  0  0  0  0  0  0  0  0  0  0
  1  2  1  0
  2  3  1  0
  2  4  1  0
  4  5  1  0
  5  6  1  0
  6  7  1  0
  7  8  1  1
  8  9  1  0
  9 10  2  0
  9 11  1  0
 11 12  1  0
 11 13  1  0
 13 14  2  0
 14 15  1  0
 15 16  2  0
 16 17  1  0
 17 18  2  0
 11 19  1  0
 19 20  2  0
 20 21  1  0
 21 22  2  0
 22 23  1  0
 23 24  2  0
  7 25  1  0
 25  2  1  0
 18 13  1  0
 24 19  1  0
M  CHG  1   2   1
M  END
>  <zinc_id>  (1) 
ZINC000000000449

>  <smiles>  (1) 
C[N+]1(C)CCC[C@H](OC(=O)C(O)(c2ccccc2)c2ccccc2)C1

$$$$
