
     RDKit          3D

 19 20  0  0  0  0  0  0  0  0999 V2000
   -2.4478    3.9701    0.7288 C   0  0  0  0  0  0  0  0  0  0  0  0
   -1.3024    3.1707    0.6486 O   0  0  0  0  0  0  0  0  0  0  0  0
   -1.3632    1.7808    0.4907 C   0  0  0  0  0  0  0  0  0  0  0  0
   -2.5655    1.1016    0.4029 C   0  0  0  0  0  0  0  0  0  0  0  0
   -2.5377   -0.2751    0.2473 C   0  0  0  0  0  0  0  0  0  0  0  0
   -3.7328   -0.9921    0.1553 C   0  0  0  0  0  0  0  0  0  0  0  0
   -3.7286   -2.3580    0.0007 C   0  0  0  0  0  0  0  0  0  0  0  0
   -2.5042   -2.9950   -0.0603 C   0  0  0  0  0  0  0  0  0  0  0  0
   -1.3556   -2.3182    0.0267 N   0  0  0  0  0  0  0  0  0  0  0  0
   -1.3536   -0.9736    0.1789 C   0  0  0  0  0  0  0  0  0  0  0  0
   -0.1249   -0.3022    0.2660 C   0  0  0  0  0  0  0  0  0  0  0  0
    1.0411   -1.0785    0.1951 N   0  0  0  0  0  0  0  0  0  0  0  0
    2.3612   -0.1556    0.2856 C   0  0  2  0  0  0  0  0  0  0  0  0
    1.9213    0.5745   -1.1793 C   0  0  0  0  0  0  0  0  0  0  0  0
    3.2896   -1.2722   -0.4631 C   0  0  0  0  0  0  0  0  0  0  0  0
    4.6606   -0.8638   -0.5587 C   0  0  0  0  0  0  0  0  0  0  0  0
    5.1660    0.3203   -1.2016 C   0  0  0  0  0  0  0  0  0  0  0  0
    4.7661    1.6015   -0.6883 N   0  0  0  0  0  0  0  0  0  0  0  0
   -0.1896    1.0649    0.4202 C   0  0  0  0  0  0  0  0  0  0  0  0
  1  2  1  0
  2  3  1  0
  3  4  2  0
  4  5  1  0
  5  6  2  0
  6  7  1  0
  7  8  2  0
  8  9  1  0
  9 10  2  0
 10 11  1  0
 11 12  1  0
 12 13  1  0
 13 14  1  6
 13 15  1  0
 15 16  1  0
 16 17  1  0
 17 18  1  0
 11 19  2  0
 19  3  1  0
 10  5  1  0
M  END
>  <zinc_id>  (1) 
ZINC000001530863

>  <smiles>  (1) 
COc1cc(N[C@H](C)CCCN)c2ncccc2c1

$$$$
