
     RDKit          3D

 19 20  0  0  0  0  0  0  0  0999 V2000
    0.2737   -0.4130   -0.4247 O   0  0  0  0  0  0  0  0  0  0  0  0
    0.3575    0.5987    0.3128 C   0  0  0  0  0  0  0  0  0  0  0  0
    1.5999    1.2439    0.5833 N   0  0  0  0  0  0  0  0  0  0  0  0
    2.7915    0.7468    0.0138 C   0  0  0  0  0  0  0  0  0  0  0  0
    3.9808    1.3768    0.2820 C   0  0  0  0  0  0  0  0  0  0  0  0
    5.1548    0.8892   -0.2775 C   0  0  0  0  0  0  0  0  0  0  0  0
    5.1550   -0.2142   -1.0972 C   0  0  0  0  0  0  0  0  0  0  0  0
    6.6604   -0.8204   -1.8004 Cl  0  0  0  0  0  0  0  0  0  0  0  0
    3.9672   -0.8394   -1.3620 C   0  0  0  0  0  0  0  0  0  0  0  0
    2.7965   -0.3487   -0.8008 C   0  0  0  0  0  0  0  0  0  0  0  0
   -0.8722    1.0788    0.8761 N   0  0  0  0  0  0  0  0  0  0  0  0
   -2.1039    0.4033    0.5812 C   0  0  0  0  0  0  0  0  0  0  0  0
   -2.1766   -0.6921   -0.2203 C   0  0  0  0  0  0  0  0  0  0  0  0
   -3.4047   -1.2886   -0.4571 C   0  0  0  0  0  0  0  0  0  0  0  0
   -4.5232   -0.7453    0.1345 C   0  0  0  0  0  0  0  0  0  0  0  0
   -6.0735   -1.4993   -0.1653 Cl  0  0  0  0  0  0  0  0  0  0  0  0
   -4.4739    0.3627    0.9492 C   0  0  0  0  0  0  0  0  0  0  0  0
   -5.8718    1.0666    1.7070 Cl  0  0  0  0  0  0  0  0  0  0  0  0
   -3.2376    0.9331    1.1653 C   0  0  0  0  0  0  0  0  0  0  0  0
  1  2  2  0
  2  3  1  0
  3  4  1  0
  4  5  2  0
  5  6  1  0
  6  7  2  0
  7  8  1  0
  7  9  1  0
  9 10  2  0
  2 11  1  0
 11 12  1  0
 12 13  2  0
 13 14  1  0
 14 15  2  0
 15 16  1  0
 15 17  1  0
 17 18  1  0
 17 19  2  0
 10  4  1  0
 19 12  1  0
M  END
>  <zinc_id>  (1) 
ZINC000000121480

>  <smiles>  (1) 
O=C(Nc1ccc(Cl)cc1)Nc1ccc(Cl)c(Cl)c1

$$$$
