
     RDKit          3D

 33 36  0  0  0  0  0  0  0  0999 V2000
   -7.0032    0.7900   -2.2023 C   0  0  0  0  0  0  0  0  0  0  0  0
   -6.4141   -0.3783   -1.2086 C   0  0  1  0  0  0  0  0  0  0  0  0
   -6.2553   -1.3675   -2.3578 O   0  0  0  0  0  0  0  0  0  0  0  0
   -4.7982    0.1558   -1.3214 C   0  0  1  0  0  0  0  0  0  0  0  0
   -5.0570    1.5847   -0.7312 C   0  0  0  0  0  0  0  0  0  0  0  0
   -5.6952    2.5776   -1.0158 O   0  0  0  0  0  0  0  0  0  0  0  0
   -4.2006    1.3307    0.3912 N   0  0  0  0  0  0  0  0  0  0  0  0
   -3.3283    1.2971    1.4939 C   0  0  0  0  0  0  0  0  0  0  0  0
   -3.3341    2.3140    2.5591 C   0  0  0  0  0  0  0  0  0  0  0  0
   -2.5304    2.2510    3.5247 O   0  0  0  0  0  0  0  0  0  0  0  0
   -4.2079    3.3878    2.5689 O   0  0  0  0  0  0  0  0  0  0  0  0
   -2.5005    0.2966    1.4981 C   0  0  0  0  0  0  0  0  0  0  0  0
   -1.2815   -0.0884    2.6751 S   0  0  0  0  0  0  0  0  0  0  0  0
   -0.4532   -1.6728    2.0554 C   0  0  2  0  0  0  0  0  0  0  0  0
    0.5576   -1.7745    3.2648 C   0  0  0  0  0  0  0  0  0  0  0  0
    1.7760   -1.2428    2.8208 N   0  0  0  0  0  0  0  0  0  0  0  0
    1.7003   -2.0659    1.4678 C   0  0  2  0  0  0  0  0  0  0  0  0
    2.9051   -1.3727    0.6948 C   0  0  0  0  0  0  0  0  0  0  0  0
    3.5985   -0.4919    1.1161 O   0  0  0  0  0  0  0  0  0  0  0  0
    3.1328   -1.8775   -0.5946 N   0  0  0  0  0  0  0  0  0  0  0  0
    4.1911   -1.3780   -1.4706 C   0  0  0  0  0  0  0  0  0  0  0  0
    4.3647   -1.9107   -2.7193 C   0  0  0  0  0  0  0  0  0  0  0  0
    5.3585   -1.4432   -3.5447 C   0  0  0  0  0  0  0  0  0  0  0  0
    6.1965   -0.4201   -3.1097 C   0  0  0  0  0  0  0  0  0  0  0  0
    6.0183    0.1123   -1.8536 C   0  0  0  0  0  0  0  0  0  0  0  0
    6.8902    1.2011   -1.3576 C   0  0  0  0  0  0  0  0  0  0  0  0
    7.8143    1.6642   -2.0740 O   0  0  0  0  0  0  0  0  0  0  0  0
    6.6980    1.7274   -0.0891 O   0  0  0  0  0  0  0  0  0  0  0  0
    5.0251   -0.3795   -1.0731 C   0  0  0  0  0  0  0  0  0  0  0  0
    0.4983   -1.0318    0.9556 C   0  0  0  0  0  0  0  0  0  0  0  0
   -2.8207   -0.5551    0.1665 C   0  0  2  0  0  0  0  0  0  0  0  0
   -2.3640    0.6438   -0.8210 C   0  0  0  0  0  0  0  0  0  0  0  0
   -4.4809   -0.2235    0.2920 C   0  0  2  0  0  0  0  0  0  0  0  0
  2  1  1  6
  2  3  1  0
  2  4  1  0
  4  5  1  1
  5  6  2  0
  5  7  1  0
  7  8  1  0
  8  9  1  0
  9 10  2  0
  9 11  1  0
  8 12  2  0
 12 13  1  0
 14 13  1  1
 14 15  1  0
 15 16  1  0
 16 17  1  0
 17 18  1  6
 18 19  2  0
 18 20  1  0
 20 21  1  0
 21 22  2  0
 22 23  1  0
 23 24  2  0
 24 25  1  0
 25 26  1  0
 26 27  2  0
 26 28  1  0
 25 29  2  0
 17 30  1  0
 12 31  1  0
 31 32  1  6
 31 33  1  0
 33  4  1  0
 33  7  1  1
 30 14  1  0
 29 21  1  0
M  END
>  <zinc_id>  (1) 
ZINC000003918453

>  <smiles>  (1) 
C[C@@H](O)[C@H]1C(=O)N2C(C(=O)O)=C(S[C@@H]3CN[C@H](C(=O)Nc4cccc(C(=O)O)c4)C3)[C@H](C)[C@H]12

$$$$
