
     RDKit          3D

 41 45  0  0  0  0  0  0  0  0999 V2000
   -0.3195   -0.4849    4.0133 C   0  0  0  0  0  0  0  0  0  0  0  0
    0.2106   -0.4126    2.7045 O   0  0  0  0  0  0  0  0  0  0  0  0
   -0.6385   -0.6014    1.6338 C   0  0  0  0  0  0  0  0  0  0  0  0
   -1.9789   -0.8558    1.8296 C   0  0  0  0  0  0  0  0  0  0  0  0
   -2.8513   -1.0492    0.7757 C   0  0  0  0  0  0  0  0  0  0  0  0
   -4.2684   -1.3177    0.9928 C   0  0  0  0  0  0  0  0  0  0  0  0
   -4.7744   -1.3832    2.2731 O   0  0  0  0  0  0  0  0  0  0  0  0
   -5.0477   -1.4935   -0.0013 N   0  0  0  0  0  0  0  0  0  0  0  0
   -6.7335   -1.8158    0.1469 S   0  0  0  0  0  0  0  0  0  0  0  0
   -7.0426   -3.2503   -0.0845 O   0  0  0  0  0  0  0  0  0  0  0  0
   -7.1325   -1.4196    1.5471 O   0  0  0  0  0  0  0  0  0  0  0  0
   -7.5555   -0.8026   -1.0265 C   0  0  0  0  0  0  0  0  0  0  0  0
   -8.3089   -1.4004   -1.9919 C   0  0  0  0  0  0  0  0  0  0  0  0
   -8.9532   -0.6032   -2.9109 C   0  0  0  0  0  0  0  0  0  0  0  0
   -8.8837    0.7718   -2.9162 C   0  0  0  0  0  0  0  0  0  0  0  0
   -8.1124    1.3618   -1.9264 C   0  0  0  0  0  0  0  0  0  0  0  0
   -7.4578    0.5686   -0.9938 C   0  0  0  0  0  0  0  0  0  0  0  0
   -6.6442    1.2386    0.0465 C   0  0  0  0  0  0  0  0  0  0  0  0
   -2.3055   -0.9735   -0.4937 C   0  0  0  0  0  0  0  0  0  0  0  0
   -0.9637   -0.7190   -0.6985 C   0  0  0  0  0  0  0  0  0  0  0  0
   -0.1008   -0.5275    0.3567 C   0  0  0  0  0  0  0  0  0  0  0  0
    1.3456   -0.2521    0.1582 C   0  0  0  0  0  0  0  0  0  0  0  0
    1.6071    1.1928    0.3973 C   0  0  0  0  0  0  0  0  0  0  0  0
    0.7385    2.1872    0.7613 C   0  0  0  0  0  0  0  0  0  0  0  0
    1.3673    3.3635    0.8776 N   0  0  0  0  0  0  0  0  0  0  0  0
    0.8431    4.6617    1.2371 C   0  0  0  0  0  0  0  0  0  0  0  0
    2.6619    3.1397    0.5872 C   0  0  0  0  0  0  0  0  0  0  0  0
    3.7662    3.9717    0.5440 C   0  0  0  0  0  0  0  0  0  0  0  0
    5.0113    3.4445    0.2018 C   0  0  0  0  0  0  0  0  0  0  0  0
    5.1754    2.1095   -0.0967 C   0  0  0  0  0  0  0  0  0  0  0  0
    6.4702    1.6478   -0.4351 N   0  0  0  0  0  0  0  0  0  0  0  0
    6.6433    0.2804   -0.7417 C   0  0  0  0  0  0  0  0  0  0  0  0
    5.6477   -0.4730   -0.7042 O   0  0  0  0  0  0  0  0  0  0  0  0
    7.8575   -0.2848   -1.0842 O   0  0  0  0  0  0  0  0  0  0  0  0
    8.0016   -1.6820   -1.3896 C   0  0  0  0  0  0  0  0  0  0  0  0
    9.4502   -1.9568   -1.7212 C   0  0  0  0  0  0  0  0  0  0  0  0
    9.6219   -3.4013   -1.3307 C   0  0  0  0  0  0  0  0  0  0  0  0
    8.8769   -3.4776   -0.0038 C   0  0  0  0  0  0  0  0  0  0  0  0
    7.8364   -2.3840   -0.0592 C   0  0  0  0  0  0  0  0  0  0  0  0
    4.0893    1.2704   -0.0583 C   0  0  0  0  0  0  0  0  0  0  0  0
    2.8508    1.8118    0.2855 C   0  0  0  0  0  0  0  0  0  0  0  0
  1  2  1  0
  2  3  1  0
  3  4  2  0
  4  5  1  0
  5  6  1  0
  6  7  1  0
  6  8  2  0
  8  9  1  0
  9 10  2  0
  9 11  2  0
  9 12  1  0
 12 13  2  0
 13 14  1  0
 14 15  2  0
 15 16  1  0
 16 17  2  0
 17 18  1  0
  5 19  2  0
 19 20  1  0
 20 21  2  0
 21 22  1  0
 22 23  1  0
 23 24  2  0
 24 25  1  0
 25 26  1  0
 25 27  1  0
 27 28  2  0
 28 29  1  0
 29 30  2  0
 30 31  1  0
 31 32  1  0
 32 33  2  0
 32 34  1  0
 34 35  1  0
 35 36  1  0
 36 37  1  0
 37 38  1  0
 38 39  1  0
 30 40  1  0
 40 41  2  0
 21  3  1  0
 41 23  1  0
 17 12  1  0
 41 27  1  0
 39 35  1  0
M  END
>  <zinc_id>  (1) 
ZINC000000896717

>  <smiles>  (1) 
COc1cc(/C(O)=N/S(=O)(=O)c2ccccc2C)ccc1Cc1cn(C)c2ccc(NC(=O)OC3CCCC3)cc12

$$$$
