
     RDKit          3D

 26 28  0  0  0  0  0  0  0  0999 V2000
    2.0603   -2.4684   -0.0475 O   0  0  0  0  0  0  0  0  0  0  0  0
    2.1193   -1.1522   -0.8208 C   0  0  1  0  0  0  0  0  0  0  0  0
    0.7570   -0.4999   -0.4184 C   0  0  0  0  0  0  0  0  0  0  0  0
    0.7707    0.7870    0.0163 C   0  0  0  0  0  0  0  0  0  0  0  0
   -0.4768    1.3951    0.2515 C   0  0  0  0  0  0  0  0  0  0  0  0
   -0.5646    2.8265    0.6664 C   0  0  0  0  0  0  0  0  0  0  0  0
   -1.0517    2.9156    1.9544 F   0  0  0  0  0  0  0  0  0  0  0  0
    0.6127    3.4560    0.5266 F   0  0  0  0  0  0  0  0  0  0  0  0
   -1.5506    3.4183   -0.1276 F   0  0  0  0  0  0  0  0  0  0  0  0
   -1.6075    0.7040    0.0528 N   0  0  0  0  0  0  0  0  0  0  0  0
   -1.6450   -0.5475   -0.3678 C   0  0  0  0  0  0  0  0  0  0  0  0
   -0.4231   -1.1432   -0.6058 C   0  0  0  0  0  0  0  0  0  0  0  0
   -0.3171   -2.4555   -1.0212 C   0  0  0  0  0  0  0  0  0  0  0  0
   -1.4842   -3.2046   -1.2004 C   0  0  0  0  0  0  0  0  0  0  0  0
   -2.6786   -2.5678   -0.9465 C   0  0  0  0  0  0  0  0  0  0  0  0
   -2.7839   -1.2905   -0.5454 C   0  0  0  0  0  0  0  0  0  0  0  0
   -4.0955   -0.6268   -0.2675 C   0  0  0  0  0  0  0  0  0  0  0  0
   -5.0785   -1.5323   -0.4564 F   0  0  0  0  0  0  0  0  0  0  0  0
   -4.2315    0.5014   -1.0543 F   0  0  0  0  0  0  0  0  0  0  0  0
   -4.0174   -0.1787    1.0628 F   0  0  0  0  0  0  0  0  0  0  0  0
    3.1513   -0.4196    0.2837 C   0  0  1  0  0  0  0  0  0  0  0  0
    4.5203   -0.9780   -0.5181 C   0  0  0  0  0  0  0  0  0  0  0  0
    5.6140   -0.2575    0.2431 C   0  0  0  0  0  0  0  0  0  0  0  0
    5.0477    0.6515    1.3154 C   0  0  0  0  0  0  0  0  0  0  0  0
    4.0898    1.6679    0.6655 C   0  0  0  0  0  0  0  0  0  0  0  0
    3.2630    0.9993   -0.3740 N   0  0  0  0  0  0  0  0  0  0  0  0
  2  1  1  1
  2  3  1  0
  3  4  2  0
  4  5  1  0
  5  6  1  0
  6  7  1  0
  6  8  1  0
  6  9  1  0
  5 10  2  0
 10 11  1  0
 11 12  2  0
 12 13  1  0
 13 14  2  0
 14 15  1  0
 15 16  2  0
 16 17  1  0
 17 18  1  0
 17 19  1  0
 17 20  1  0
  2 21  1  0
 21 22  1  6
 22 23  1  0
 23 24  1  0
 24 25  1  0
 25 26  1  0
 12  3  1  0
 26 21  1  0
 16 11  1  0
M  END
>  <zinc_id>  (1) 
ZINC000000897085

>  <smiles>  (1) 
O[C@@H](c1cc(C(F)(F)F)nc2c(C(F)(F)F)cccc12)[C@H]1CCCCN1

$$$$
