
     RDKit          3D

 16 17  0  0  0  0  0  0  0  0999 V2000
   -1.8382   -1.1844    2.1419 C   0  0  0  0  0  0  0  0  0  0  0  0
   -1.8076    0.1493    1.2042 C   0  0  1  0  0  0  0  0  0  0  0  0
   -0.3170   -0.0696    0.7212 C   0  0  0  0  0  0  0  0  0  0  0  0
    0.5880    0.9488    0.7964 C   0  0  0  0  0  0  0  0  0  0  0  0
    1.8372    0.6953    0.3686 C   0  0  0  0  0  0  0  0  0  0  0  0
    2.9433    1.5685    0.3391 C   0  0  0  0  0  0  0  0  0  0  0  0
    4.1514    1.2093   -0.1138 C   0  0  0  0  0  0  0  0  0  0  0  0
    4.4051   -0.0520   -0.5886 C   0  0  0  0  0  0  0  0  0  0  0  0
    3.3503   -0.9371   -0.5767 C   0  0  0  0  0  0  0  0  0  0  0  0
    2.0898   -0.5629   -0.1046 C   0  0  0  0  0  0  0  0  0  0  0  0
    0.5515   -1.3148    0.0810 S   0  0  0  0  0  0  0  0  0  0  0  0
   -2.4947   -0.5275   -0.0204 N   0  0  0  0  0  0  0  0  0  0  0  0
   -2.1960   -1.7381   -0.3904 O   0  0  0  0  0  0  0  0  0  0  0  0
   -3.4493    0.3201   -0.6539 C   0  0  0  0  0  0  0  0  0  0  0  0
   -3.7593    1.6340   -0.2421 N   0  0  0  0  0  0  0  0  0  0  0  0
   -4.0543   -0.1389   -1.6490 O   0  0  0  0  0  0  0  0  0  0  0  0
  2  1  1  1
  2  3  1  0
  3  4  2  0
  4  5  1  0
  5  6  2  0
  6  7  1  0
  7  8  2  0
  8  9  1  0
  9 10  2  0
 10 11  1  0
  2 12  1  0
 12 13  1  0
 12 14  1  0
 14 15  1  0
 14 16  2  0
 11  3  1  0
 10  5  1  0
M  END
>  <zinc_id>  (1) 
ZINC000000000850

>  <smiles>  (1) 
C[C@@H](c1cc2ccccc2s1)N(O)C(N)=O

$$$$
