
     RDKit          2D

 30 35  0  0  0  0  0  0  0  0999 V2000
    1.0793   -5.7505    0.0000 C   0  0  0  0  0  0  0  0  0  0  0  0
    1.6347   -4.3571    0.0000 O   0  0  0  0  0  0  0  0  0  0  0  0
    0.7056   -3.1795    0.0000 C   0  0  0  0  0  0  0  0  0  0  0  0
   -0.7788   -3.3952    0.0000 O   0  0  0  0  0  0  0  0  0  0  0  0
    1.2610   -1.7861    0.0000 C   0  0  0  0  0  0  0  0  0  0  0  0
    2.7454   -1.5703    0.0000 C   0  0  0  0  0  0  0  0  0  0  0  0
    3.3007   -0.1769    0.0000 C   0  0  0  0  0  0  0  0  0  0  0  0
    4.7851    0.0389    0.0000 C   0  0  0  0  0  0  0  0  0  0  0  0
    5.3405    1.4323    0.0000 C   0  0  0  0  0  0  0  0  0  0  0  0
    6.8249    1.6480    0.0000 O   0  0  0  0  0  0  0  0  0  0  0  0
    4.4114    2.6099    0.0000 C   0  0  0  0  0  0  0  0  0  0  0  0
    2.9270    2.3942    0.0000 C   0  0  0  0  0  0  0  0  0  0  0  0
    2.3717    1.0007    0.0000 C   0  0  0  0  0  0  0  0  0  0  0  0
    2.0441    1.7275    0.0000 C   0  0  0  0  0  0  0  0  0  0  0  0
    0.8873    0.7850    0.0000 C   0  0  0  0  0  0  0  0  0  0  0  0
    1.4426    2.1784    0.0000 O   0  0  0  0  0  0  0  0  0  0  0  0
   -0.0418    1.9626    0.0000 C   0  0  0  0  0  0  0  0  0  0  0  0
   -1.5262    1.7469    0.0000 C   0  0  0  0  0  0  0  0  0  0  0  0
   -2.0815    0.3535    0.0000 C   0  0  0  0  0  0  0  0  0  0  0  0
   -2.8376    1.6490    0.0000 C   0  0  0  0  0  0  0  0  0  0  0  0
   -1.1525   -0.8242    0.0000 C   0  0  0  0  0  0  0  0  0  0  0  0
   -1.9854   -2.0717    0.0000 C   0  0  0  0  0  0  0  0  0  0  0  0
   -3.4292   -1.6650    0.0000 C   0  0  0  0  0  0  0  0  0  0  0  0
   -3.4886   -0.1662    0.0000 C   0  0  0  0  0  0  0  0  0  0  0  0
   -4.8957   -0.6859    0.0000 C   0  0  0  0  0  0  0  0  0  0  0  0
   -5.8248    0.4918    0.0000 C   0  0  0  0  0  0  0  0  0  0  0  0
   -4.9919    1.7393    0.0000 C   0  0  0  0  0  0  0  0  0  0  0  0
   -5.5115    3.1464    0.0000 O   0  0  0  0  0  0  0  0  0  0  0  0
   -3.5480    1.3326    0.0000 O   0  0  0  0  0  0  0  0  0  0  0  0
    0.3319   -0.6084    0.0000 C   0  0  0  0  0  0  0  0  0  0  0  0
  1  2  1  0
  2  3  1  0
  3  4  2  0
  5  3  1  1
  5  6  1  0
  6  7  1  0
  7  8  2  0
  8  9  1  0
  9 10  2  0
  9 11  1  0
 11 12  1  0
 12 13  1  0
 13 14  1  6
 13 15  1  0
 15 16  1  1
 16 17  1  0
 17 18  1  1
 18 19  1  0
 19 20  1  6
 19 21  1  0
 21 22  1  6
 22 23  1  0
 24 23  1  6
 24 25  1  0
 25 26  1  0
 26 27  1  0
 27 28  2  0
 27 29  1  0
 21 30  1  0
 30  5  1  1
 13  7  1  0
 17 15  1  0
 24 19  1  0
 30 15  1  0
 29 24  1  0
M  END
>  <zinc_id>  (1) 
ZINC000003985982

>  <smiles>  (1) 
COC(=O)[C@@H]1CC2=CC(=O)CC[C@]2(C)[C@@]23O[C@@H]2C[C@@]2(C)[C@@H](CC[C@@]24CCC(=O)O4)[C@H]13

$$$$
