
     RDKit          3D

 16 15  0  0  0  0  0  0  0  0999 V2000
    4.8271    1.1120    1.0428 C   0  0  0  0  0  0  0  0  0  0  0  0
    6.0778    0.3606    0.7845 C   0  0  0  0  0  0  0  0  0  0  0  0
    6.1116   -0.2621   -0.5540 C   0  0  0  0  0  0  0  0  0  0  0  0
    5.0043   -1.2480   -0.7313 C   0  0  0  0  0  0  0  0  0  0  0  0
    3.6700   -0.6107   -0.6011 C   0  0  0  0  0  0  0  0  0  0  0  0
    2.5374   -1.5967   -0.7809 C   0  0  0  0  0  0  0  0  0  0  0  0
    1.2335   -0.8469   -0.6310 C   0  0  0  0  0  0  0  0  0  0  0  0
    1.1862   -0.2331    0.7511 C   0  0  0  0  0  0  0  0  0  0  0  0
   -0.1423    0.5105    0.8563 C   0  0  0  0  0  0  0  0  0  0  0  0
   -1.2586   -0.5001    0.6556 C   0  0  0  0  0  0  0  0  0  0  0  0
   -2.5819    0.2293    0.7584 C   0  0  0  0  0  0  0  0  0  0  0  0
   -3.7079   -0.7651    0.5604 C   0  0  0  0  0  0  0  0  0  0  0  0
   -4.9034   -0.0192    0.6686 O   0  0  0  0  0  0  0  0  0  0  0  0
   -4.8282    0.9465   -0.3577 C   0  0  0  0  0  0  0  0  0  0  0  0
   -6.0306    1.8341   -0.3872 C   0  0  0  0  0  0  0  0  0  0  0  0
   -7.1951    1.0888   -0.6006 O   0  0  0  0  0  0  0  0  0  0  0  0
  1  2  1  0
  2  3  1  0
  3  4  1  0
  4  5  1  0
  5  6  1  0
  6  7  1  0
  7  8  1  0
  8  9  1  0
  9 10  1  0
 10 11  1  0
 11 12  1  0
 12 13  1  0
 13 14  1  0
 14 15  1  0
 15 16  1  0
M  END
>  <zinc_id>  (1) 
ZINC000008437287

>  <smiles>  (1) 
CCCCCCCCCCCCOCCO

$$$$
