
     RDKit          3D

 12 11  0  0  0  0  0  0  0  0999 V2000
    4.0184   -0.7084    0.4840 N   0  0  0  0  0  0  0  0  0  0  0  0
    3.4310    0.1070   -0.2929 C   0  0  0  0  0  0  0  0  0  0  0  0
    4.0812    1.2514   -0.8270 N   0  0  0  0  0  0  0  0  0  0  0  0
    2.0715   -0.1328   -0.6423 N   0  0  0  0  0  0  0  0  0  0  0  0
    1.1881   -0.8054    0.3165 C   0  0  0  0  0  0  0  0  0  0  0  0
   -0.1618   -0.9240   -0.3045 C   0  0  0  0  0  0  0  0  0  0  0  0
   -0.7142    0.4543   -0.6344 C   0  0  0  0  0  0  0  0  0  0  0  0
   -2.1696   -0.0089   -1.2862 C   0  0  2  0  0  0  0  0  0  0  0  0
   -2.6157    1.4705   -1.5720 N   0  0  0  0  0  0  0  0  0  0  0  0
   -2.8745   -0.1646    0.1262 C   0  0  0  0  0  0  0  0  0  0  0  0
   -2.6696   -1.2999    0.5976 O   0  0  0  0  0  0  0  0  0  0  0  0
   -3.5849    0.7607    0.7412 O   0  0  0  0  0  0  0  0  0  0  0  0
  1  2  2  0
  2  3  1  0
  2  4  1  0
  4  5  1  0
  5  6  1  0
  6  7  1  0
  7  8  1  0
  8  9  1  6
  8 10  1  0
 10 11  2  0
 10 12  1  0
M  END
>  <zinc_id>  (1) 
ZINC000001532525

>  <smiles>  (1) 
N=C(N)NCCC[C@H](N)C(=O)O

$$$$
