
     RDKit          3D

 42 42  0  0  0  0  0  0  0  0999 V2000
  -11.0372    4.2207   -0.4883 C   0  0  0  0  0  0  0  0  0  0  0  0
  -11.6795    2.8833   -0.7016 C   0  0  0  0  0  0  0  0  0  0  0  0
  -11.9389    2.2061    0.6390 C   0  0  0  0  0  0  0  0  0  0  0  0
  -12.5872    0.8575    0.4107 C   0  0  0  0  0  0  0  0  0  0  0  0
  -11.7571   -0.0182   -0.3780 N   0  0  0  0  0  0  0  0  0  0  0  0
  -10.4712   -0.3600    0.1127 C   0  0  0  0  0  0  0  0  0  0  0  0
   -9.6941   -1.2027   -0.6646 C   0  0  0  0  0  0  0  0  0  0  0  0
   -8.4437   -1.5275   -0.1743 C   0  0  0  0  0  0  0  0  0  0  0  0
   -7.9827   -1.0402    1.0312 C   0  0  0  0  0  0  0  0  0  0  0  0
   -6.6403   -1.4537    1.4481 C   0  0  0  0  0  0  0  0  0  0  0  0
   -6.1445   -1.0485    2.5439 O   0  0  0  0  0  0  0  0  0  0  0  0
   -5.8553   -2.2964    0.6772 O   0  0  0  0  0  0  0  0  0  0  0  0
   -4.5580   -2.7007    1.0721 C   0  0  0  0  0  0  0  0  0  0  0  0
   -3.6318   -1.5183    1.2459 C   0  0  0  0  0  0  0  0  0  0  0  0
   -3.5243   -0.8274    0.0469 O   0  0  0  0  0  0  0  0  0  0  0  0
   -2.6761    0.2564    0.2036 C   0  0  0  0  0  0  0  0  0  0  0  0
   -1.2791   -0.1801    0.6280 C   0  0  0  0  0  0  0  0  0  0  0  0
   -0.8118   -1.0250   -0.4058 O   0  0  0  0  0  0  0  0  0  0  0  0
   -0.8040   -0.2585   -1.5691 C   0  0  0  0  0  0  0  0  0  0  0  0
   -0.3708   -0.9956   -2.7811 C   0  0  0  0  0  0  0  0  0  0  0  0
    0.8963   -1.4797   -2.6609 O   0  0  0  0  0  0  0  0  0  0  0  0
    1.9125   -0.5957   -2.5116 C   0  0  0  0  0  0  0  0  0  0  0  0
    1.9488    0.3081   -1.3925 C   0  0  0  0  0  0  0  0  0  0  0  0
    2.9712    1.1844   -1.2588 O   0  0  0  0  0  0  0  0  0  0  0  0
    3.2573    2.0533   -2.2400 C   0  0  0  0  0  0  0  0  0  0  0  0
    3.9625    1.6528   -3.4585 C   0  0  0  0  0  0  0  0  0  0  0  0
    5.2245    1.2133   -3.2798 O   0  0  0  0  0  0  0  0  0  0  0  0
    5.4171    0.1663   -2.4610 C   0  0  0  0  0  0  0  0  0  0  0  0
    6.8794   -0.1743   -2.3902 C   0  0  0  0  0  0  0  0  0  0  0  0
    7.1019   -1.2648   -1.5405 O   0  0  0  0  0  0  0  0  0  0  0  0
    8.4893   -1.5107   -1.5358 C   0  0  0  0  0  0  0  0  0  0  0  0
    9.1300   -0.2190   -1.0127 C   0  0  0  0  0  0  0  0  0  0  0  0
    8.5938   -0.0311    0.2795 O   0  0  0  0  0  0  0  0  0  0  0  0
    9.1071    1.1238    0.8622 C   0  0  0  0  0  0  0  0  0  0  0  0
   10.6059    1.0803    1.0015 C   0  0  0  0  0  0  0  0  0  0  0  0
   10.9778   -0.0115    1.8096 O   0  0  0  0  0  0  0  0  0  0  0  0
   12.3644   -0.0402    1.9303 C   0  0  0  0  0  0  0  0  0  0  0  0
   12.8753    1.2370    2.5636 C   0  0  0  0  0  0  0  0  0  0  0  0
   14.2491    1.2288    2.6923 O   0  0  0  0  0  0  0  0  0  0  0  0
   14.7031    0.1856    3.4806 C   0  0  0  0  0  0  0  0  0  0  0  0
   -8.7589   -0.2100    1.7882 C   0  0  0  0  0  0  0  0  0  0  0  0
  -10.0210    0.1321    1.3176 C   0  0  0  0  0  0  0  0  0  0  0  0
  1  2  1  0
  2  3  1  0
  3  4  1  0
  4  5  1  0
  5  6  1  0
  6  7  2  0
  7  8  1  0
  8  9  2  0
  9 10  1  0
 10 11  2  0
 10 12  1  0
 12 13  1  0
 13 14  1  0
 14 15  1  0
 15 16  1  0
 16 17  1  0
 17 18  1  0
 18 19  1  0
 19 20  1  0
 20 21  1  0
 21 22  1  0
 22 23  1  0
 23 24  1  0
 24 25  1  0
 25 26  1  0
 26 27  1  0
 27 28  1  0
 28 29  1  0
 29 30  1  0
 30 31  1  0
 31 32  1  0
 32 33  1  0
 33 34  1  0
 34 35  1  0
 35 36  1  0
 36 37  1  0
 37 38  1  0
 38 39  1  0
 39 40  1  0
  9 41  1  0
 41 42  2  0
 42  6  1  0
M  END
>  <zinc_id>  (1) 
ZINC000003830276

>  <smiles>  (1) 
CCCCNc1ccc(C(=O)OCCOCCOCCOCCOCCOCCOCCOCCOCCOC)cc1

$$$$
