
     RDKit          3D

 32 32  0  0  0  0  0  0  0  0999 V2000
   -3.7038   -4.4395   -0.6983 C   0  0  0  0  0  0  0  0  0  0  0  0
   -2.9172   -4.9393   -1.5969 O   0  0  0  0  0  0  0  0  0  0  0  0
   -2.5879   -4.1175   -2.6634 C   0  0  0  0  0  0  0  0  0  0  0  0
   -1.8946   -2.9042   -2.1937 C   0  0  0  0  0  0  0  0  0  0  0  0
   -1.4753   -2.0072   -2.9611 O   0  0  0  0  0  0  0  0  0  0  0  0
   -1.6832   -2.7261   -0.8224 N   0  0  0  0  0  0  0  0  0  0  0  0
   -1.0212   -1.5937   -0.2756 C   0  0  0  0  0  0  0  0  0  0  0  0
   -1.6715   -0.4417    0.0865 C   0  0  0  0  0  0  0  0  0  0  0  0
   -3.7690   -0.3887   -0.2085 I   0  0  0  0  0  0  0  0  0  0  0  0
   -1.0196    0.6532    0.6195 C   0  0  0  0  0  0  0  0  0  0  0  0
   -1.7612    1.8640    0.9918 C   0  0  0  0  0  0  0  0  0  0  0  0
   -2.9985    1.8362    0.7970 O   0  0  0  0  0  0  0  0  0  0  0  0
   -1.1936    2.9939    1.5262 N   0  0  0  0  0  0  0  0  0  0  0  0
   -1.5885    4.2437    1.9605 C   0  0  0  0  0  0  0  0  0  0  0  0
   -2.2383    5.0093    0.6588 C   0  0  2  0  0  0  0  0  0  0  0  0
   -2.4191    6.3510    1.4635 O   0  0  0  0  0  0  0  0  0  0  0  0
   -3.8284    4.5899    1.0832 C   0  0  0  0  0  0  0  0  0  0  0  0
   -4.4979    5.6563    0.4835 O   0  0  0  0  0  0  0  0  0  0  0  0
    0.3386    0.6333    0.8132 C   0  0  0  0  0  0  0  0  0  0  0  0
    1.2932    2.3147    1.6248 I   0  0  0  0  0  0  0  0  0  0  0  0
    1.0320   -0.5339    0.4512 C   0  0  0  0  0  0  0  0  0  0  0  0
    2.4756   -0.4466    0.7054 C   0  0  0  0  0  0  0  0  0  0  0  0
    2.8106   -0.8510    1.8452 O   0  0  0  0  0  0  0  0  0  0  0  0
    3.3984    0.0577   -0.2410 N   0  0  0  0  0  0  0  0  0  0  0  0
    2.7160    0.4218   -1.5347 C   0  0  0  0  0  0  0  0  0  0  0  0
    4.7213    0.2458   -0.0267 C   0  0  0  0  0  0  0  0  0  0  0  0
    5.8074   -0.8509   -0.4395 C   0  0  2  0  0  0  0  0  0  0  0  0
    5.3517   -0.8632   -1.9316 O   0  0  0  0  0  0  0  0  0  0  0  0
    5.1109   -2.2623   -0.0725 C   0  0  0  0  0  0  0  0  0  0  0  0
    5.4874   -2.5405    1.2406 O   0  0  0  0  0  0  0  0  0  0  0  0
    0.3667   -1.5964   -0.0705 C   0  0  0  0  0  0  0  0  0  0  0  0
    1.3592   -3.3683   -0.6145 I   0  0  0  0  0  0  0  0  0  0  0  0
  1  2  1  0
  2  3  1  0
  3  4  1  0
  4  5  2  0
  4  6  1  0
  6  7  1  0
  7  8  2  0
  8  9  1  0
  8 10  1  0
 10 11  1  0
 11 12  2  0
 11 13  1  0
 13 14  1  0
 14 15  1  0
 15 16  1  1
 15 17  1  0
 17 18  1  0
 10 19  2  0
 19 20  1  0
 19 21  1  0
 21 22  1  0
 22 23  2  0
 22 24  1  0
 24 25  1  0
 24 26  1  0
 26 27  1  0
 27 28  1  6
 27 29  1  0
 29 30  1  0
 21 31  2  0
 31 32  1  0
 31  7  1  0
M  END
>  <zinc_id>  (1) 
ZINC000003830957

>  <smiles>  (1) 
COCC(=O)Nc1c(I)c(C(=O)NC[C@H](O)CO)c(I)c(C(=O)N(C)C[C@H](O)CO)c1I

$$$$
