
     RDKit          3D

 19 21  0  0  0  0  0  0  0  0999 V2000
   -0.4686    2.7188   -0.3497 O   0  0  0  0  0  0  0  0  0  0  0  0
   -0.8059    1.5582   -0.1178 C   0  0  0  0  0  0  0  0  0  0  0  0
   -2.1888    1.0676    0.0580 C   0  0  0  0  0  0  0  0  0  0  0  0
   -3.4172    1.7181    0.0162 C   0  0  0  0  0  0  0  0  0  0  0  0
   -4.5805    1.0055    0.2193 C   0  0  0  0  0  0  0  0  0  0  0  0
   -4.4840   -0.3471    0.4597 C   0  0  0  0  0  0  0  0  0  0  0  0
   -3.2849   -1.0354    0.5099 C   0  0  0  0  0  0  0  0  0  0  0  0
   -2.1352   -0.3139    0.3061 C   0  0  0  0  0  0  0  0  0  0  0  0
   -0.7403   -0.7325    0.2950 C   0  0  0  0  0  0  0  0  0  0  0  0
   -0.2008   -1.8409    0.4637 O   0  0  0  0  0  0  0  0  0  0  0  0
    0.0112    0.3755    0.0460 N   0  0  0  0  0  0  0  0  0  0  0  0
    1.5376    0.5707   -0.0913 C   0  0  1  0  0  0  0  0  0  0  0  0
    1.8322   -0.0060    1.4040 C   0  0  0  0  0  0  0  0  0  0  0  0
    3.2669   -0.1849    1.6044 C   0  0  0  0  0  0  0  0  0  0  0  0
    4.0102   -0.7776    0.4892 C   0  0  0  0  0  0  0  0  0  0  0  0
    5.2410   -0.8069    0.4950 O   0  0  0  0  0  0  0  0  0  0  0  0
    3.1367   -1.2840   -0.5441 N   0  0  0  0  0  0  0  0  0  0  0  0
    1.9685   -0.6561   -0.9186 C   0  0  0  0  0  0  0  0  0  0  0  0
    1.3018   -1.0290   -1.8444 O   0  0  0  0  0  0  0  0  0  0  0  0
  1  2  2  0
  2  3  1  0
  3  4  2  0
  4  5  1  0
  5  6  2  0
  6  7  1  0
  7  8  2  0
  8  9  1  0
  9 10  2  0
  9 11  1  0
 12 11  1  1
 12 13  1  0
 13 14  1  0
 14 15  1  0
 15 16  2  0
 15 17  1  0
 17 18  1  0
 18 19  2  0
 11  2  1  0
 18 12  1  0
  8  3  1  0
M  END
>  <zinc_id>  (1) 
ZINC000001530947

>  <smiles>  (1) 
O=C1CC[C@H](N2C(=O)c3ccccc3C2=O)C(=O)N1

$$$$
