
     RDKit          3D

 19 21  0  0  0  0  0  0  0  0999 V2000
    3.2154    0.9013    1.0014 O   0  0  0  0  0  0  0  0  0  0  0  0
    3.8669    0.4731    0.3090 C   0  0  0  0  0  0  0  0  0  0  0  0
    5.1203    1.0190    0.0112 O   0  0  0  0  0  0  0  0  0  0  0  0
    3.4403   -0.8296   -0.4409 C   0  0  2  0  0  0  0  0  0  0  0  0
    2.9348   -0.0802   -1.8071 C   0  0  0  0  0  0  0  0  0  0  0  0
    1.9304    0.8895   -1.2076 C   0  0  0  0  0  0  0  0  0  0  0  0
    1.2362   -0.0225   -0.3081 N   0  0  0  0  0  0  0  0  0  0  0  0
    0.0016   -0.1735    0.2003 C   0  0  0  0  0  0  0  0  0  0  0  0
   -1.1912    0.6683   -0.0168 C   0  0  0  0  0  0  0  0  0  0  0  0
   -1.0745    1.8975   -0.2353 O   0  0  0  0  0  0  0  0  0  0  0  0
   -2.5071    0.0962    0.0172 C   0  0  0  0  0  0  0  0  0  0  0  0
   -2.6873   -1.2432   -0.1606 C   0  0  0  0  0  0  0  0  0  0  0  0
   -3.9713   -1.7807   -0.1260 C   0  0  0  0  0  0  0  0  0  0  0  0
   -5.0763   -0.9555    0.0913 C   0  0  0  0  0  0  0  0  0  0  0  0
   -4.8885    0.3970    0.2702 C   0  0  0  0  0  0  0  0  0  0  0  0
   -3.6059    0.8987    0.2295 C   0  0  0  0  0  0  0  0  0  0  0  0
   -0.0075   -1.3001    1.0328 C   0  0  0  0  0  0  0  0  0  0  0  0
    1.2820   -1.8026    0.9883 C   0  0  0  0  0  0  0  0  0  0  0  0
    1.9820   -0.9713    0.1511 C   0  0  0  0  0  0  0  0  0  0  0  0
  1  2  2  0
  2  3  1  0
  4  2  1  1
  4  5  1  0
  5  6  1  0
  6  7  1  0
  7  8  1  0
  8  9  1  0
  9 10  2  0
  9 11  1  0
 11 12  2  0
 12 13  1  0
 13 14  2  0
 14 15  1  0
 15 16  2  0
  8 17  2  0
 17 18  1  0
 18 19  2  0
 19  4  1  0
 19  7  1  0
 16 11  1  0
M  END
>  <zinc_id>  (1) 
ZINC000000002279

>  <smiles>  (1) 
O=C(c1ccccc1)c1ccc2n1CC[C@H]2C(=O)O

$$$$
