
     RDKit          3D

 29 33  0  0  0  0  0  0  0  0999 V2000
    0.5000   -2.3643    1.3777 C   0  0  0  0  0  0  0  0  0  0  0  0
    0.4686   -0.9314    1.4206 O   0  0  0  0  0  0  0  0  0  0  0  0
    0.0619   -0.3352    0.2272 C   0  0  0  0  0  0  0  0  0  0  0  0
    1.0599   -0.1431   -0.6970 C   0  0  0  0  0  0  0  0  0  0  0  0
    2.3953   -0.5036   -0.4301 N   0  0  0  0  0  0  0  0  0  0  0  0
    2.9790   -1.7520   -0.6986 C   0  0  0  0  0  0  0  0  0  0  0  0
    4.5260   -1.5926   -0.2762 C   0  0  2  0  0  0  0  0  0  0  0  0
    4.2169   -1.3582    1.2877 C   0  0  0  0  0  0  0  0  0  0  0  0
    5.3804   -0.7720    1.9750 C   0  0  0  0  0  0  0  0  0  0  0  0
    5.4004    0.6627    1.4073 C   0  0  0  0  0  0  0  0  0  0  0  0
    5.7590    0.5016    0.0882 N   0  0  0  0  0  0  0  0  0  0  0  0
    4.5899    0.0240   -0.8288 C   0  0  2  0  0  0  0  0  0  0  0  0
    3.3193    0.4630    0.1526 C   0  0  0  0  0  0  0  0  0  0  0  0
    0.7084    0.4441   -1.9152 C   0  0  0  0  0  0  0  0  0  0  0  0
    1.7189    0.6188   -2.8067 F   0  0  0  0  0  0  0  0  0  0  0  0
   -0.5928    0.8131   -2.1683 C   0  0  0  0  0  0  0  0  0  0  0  0
   -1.5733    0.6105   -1.2213 C   0  0  0  0  0  0  0  0  0  0  0  0
   -2.8863    0.9971   -1.4653 C   0  0  0  0  0  0  0  0  0  0  0  0
   -3.2096    1.5241   -2.5603 O   0  0  0  0  0  0  0  0  0  0  0  0
   -3.8597    0.8089   -0.5087 C   0  0  0  0  0  0  0  0  0  0  0  0
   -5.2103    1.2270   -0.8112 C   0  0  0  0  0  0  0  0  0  0  0  0
   -6.1035    1.0649    0.0417 O   0  0  0  0  0  0  0  0  0  0  0  0
   -5.5323    1.7994   -2.0176 O   0  0  0  0  0  0  0  0  0  0  0  0
   -3.4939    0.2349    0.6785 C   0  0  0  0  0  0  0  0  0  0  0  0
   -2.2138   -0.1539    0.9440 N   0  0  0  0  0  0  0  0  0  0  0  0
   -1.8895   -0.7116    2.2338 C   0  0  0  0  0  0  0  0  0  0  0  0
   -3.0507   -1.1933    3.0714 C   0  0  0  0  0  0  0  0  0  0  0  0
   -2.2025   -0.0083    3.4850 C   0  0  0  0  0  0  0  0  0  0  0  0
   -1.2659    0.0253    0.0148 C   0  0  0  0  0  0  0  0  0  0  0  0
  1  2  1  0
  2  3  1  0
  3  4  2  0
  4  5  1  0
  5  6  1  0
  7  6  1  6
  7  8  1  0
  8  9  1  0
  9 10  1  0
 10 11  1  0
 11 12  1  0
 12 13  1  1
  4 14  1  0
 14 15  1  0
 14 16  2  0
 16 17  1  0
 17 18  1  0
 18 19  2  0
 18 20  1  0
 20 21  1  0
 21 22  2  0
 21 23  1  0
 20 24  2  0
 24 25  1  0
 25 26  1  0
 26 27  1  0
 27 28  1  0
 25 29  1  0
 29  3  1  0
 13  5  1  0
 29 17  2  0
 12  7  1  0
 28 26  1  0
M  END
>  <zinc_id>  (1) 
ZINC000003826253

>  <smiles>  (1) 
COc1c(N2C[C@@H]3CCCN[C@@H]3C2)c(F)cc2c(=O)c(C(=O)O)cn(C3CC3)c12

$$$$
