
     RDKit          3D

 22 23  0  0  0  0  0  0  0  0999 V2000
   -6.8740    0.0554    1.3120 C   0  0  0  0  0  0  0  0  0  0  0  0
   -5.9217    0.5940    0.3372 C   0  0  0  0  0  0  0  0  0  0  0  0
   -5.5393    2.0173    0.6713 C   0  0  0  0  0  0  0  0  0  0  0  0
   -4.7312   -0.2090    0.1806 N   0  0  0  0  0  0  0  0  0  0  0  0
   -5.0892   -1.4721   -0.3067 C   0  0  0  0  0  0  0  0  0  0  0  0
   -3.7121   -2.3873   -0.4808 C   0  0  2  0  0  0  0  0  0  0  0  0
   -3.3605   -2.2830    1.0117 O   0  0  0  0  0  0  0  0  0  0  0  0
   -2.6807   -1.1362   -0.8901 C   0  0  0  0  0  0  0  0  0  0  0  0
   -1.4661   -1.6907   -0.4326 O   0  0  0  0  0  0  0  0  0  0  0  0
   -0.3089   -0.9314   -0.5956 C   0  0  0  0  0  0  0  0  0  0  0  0
   -0.3567    0.2978   -1.1756 C   0  0  0  0  0  0  0  0  0  0  0  0
    0.7735    1.0439   -1.3374 C   0  0  0  0  0  0  0  0  0  0  0  0
    2.0082    0.5286   -0.8952 C   0  0  0  0  0  0  0  0  0  0  0  0
    3.1475    1.4452   -1.1475 C   0  0  0  0  0  0  0  0  0  0  0  0
    3.4340    2.4281   -0.0850 C   0  0  0  0  0  0  0  0  0  0  0  0
    3.8486    2.0178    1.1178 O   0  0  0  0  0  0  0  0  0  0  0  0
    5.0619    1.4888    1.3084 C   0  0  0  0  0  0  0  0  0  0  0  0
    5.5382    0.3081    0.6115 C   0  0  0  0  0  0  0  0  0  0  0  0
    6.8397   -0.3284    0.7615 C   0  0  0  0  0  0  0  0  0  0  0  0
    6.3960    0.3447   -0.5762 C   0  0  0  0  0  0  0  0  0  0  0  0
    2.0770   -0.7054   -0.3095 C   0  0  0  0  0  0  0  0  0  0  0  0
    0.9157   -1.4262   -0.1645 C   0  0  0  0  0  0  0  0  0  0  0  0
  1  2  1  0
  2  3  1  0
  2  4  1  0
  4  5  1  0
  5  6  1  0
  6  7  1  1
  6  8  1  0
  8  9  1  0
  9 10  1  0
 10 11  2  0
 11 12  1  0
 12 13  2  0
 13 14  1  0
 14 15  1  0
 15 16  1  0
 16 17  1  0
 17 18  1  0
 18 19  1  0
 19 20  1  0
 13 21  1  0
 21 22  2  0
 22 10  1  0
 20 18  1  0
M  END
>  <zinc_id>  (1) 
ZINC000001530567

>  <smiles>  (1) 
CC(C)NC[C@H](O)COc1ccc(CCOCC2CC2)cc1

$$$$
