
     RDKit          3D

 28 30  0  0  0  0  0  0  0  0999 V2000
   -4.2076   -1.3011   -2.8942 C   0  0  0  0  0  0  0  0  0  0  0  0
   -4.2785   -0.3162   -2.9386 O   0  0  0  0  0  0  0  0  0  0  0  0
   -4.2003    0.7031   -2.0412 C   0  0  0  0  0  0  0  0  0  0  0  0
   -2.9263    0.8155   -1.3050 C   0  0  0  0  0  0  0  0  0  0  0  0
   -2.8901    0.7347    0.0024 C   0  0  0  0  0  0  0  0  0  0  0  0
   -4.1521    0.5259    0.7621 C   0  0  0  0  0  0  0  0  0  0  0  0
   -5.1959    0.4515    0.0773 O   0  0  0  0  0  0  0  0  0  0  0  0
   -4.2632    0.4111    2.1043 O   0  0  0  0  0  0  0  0  0  0  0  0
   -1.7469    0.8329    0.8423 N   0  0  0  0  0  0  0  0  0  0  0  0
   -1.0303    0.3567    1.9467 C   0  0  0  0  0  0  0  0  0  0  0  0
   -1.2040   -0.4849    2.7949 O   0  0  0  0  0  0  0  0  0  0  0  0
    0.1332    1.3232    1.7204 C   0  0  1  0  0  0  0  0  0  0  0  0
    1.2449    0.6517    1.0048 N   0  0  0  0  0  0  0  0  0  0  0  0
    1.3030   -0.6285    0.5120 C   0  0  0  0  0  0  0  0  0  0  0  0
    0.3008   -1.3349    0.6787 O   0  0  0  0  0  0  0  0  0  0  0  0
    2.4564   -1.2004   -0.1869 C   0  0  0  0  0  0  0  0  0  0  0  0
    2.4340   -2.4097   -0.6145 N   0  0  0  0  0  0  0  0  0  0  0  0
    1.3453   -3.2187   -0.4422 O   0  0  0  0  0  0  0  0  0  0  0  0
    1.5173   -4.5903   -0.1671 C   0  0  0  0  0  0  0  0  0  0  0  0
    3.6771   -0.3738   -0.4128 C   0  0  0  0  0  0  0  0  0  0  0  0
    4.7914   -0.8769   -1.0674 C   0  0  0  0  0  0  0  0  0  0  0  0
    5.8469    0.4629   -1.0460 S   0  0  0  0  0  0  0  0  0  0  0  0
    4.8444    1.5643   -0.2281 C   0  0  0  0  0  0  0  0  0  0  0  0
    5.1319    2.9322    0.1309 N   0  0  0  0  0  0  0  0  0  0  0  0
    3.7581    0.8582   -0.0125 N   0  0  0  0  0  0  0  0  0  0  0  0
   -0.7788    1.9591    0.4863 C   0  0  1  0  0  0  0  0  0  0  0  0
   -0.2100    1.1485   -1.1093 S   0  0  0  0  0  0  0  0  0  0  0  0
   -1.7007    1.0039   -2.0952 C   0  0  0  0  0  0  0  0  0  0  0  0
  1  2  1  0
  2  3  1  0
  3  4  1  0
  4  5  2  0
  5  6  1  0
  6  7  2  0
  6  8  1  0
  5  9  1  0
  9 10  1  0
 10 11  2  0
 10 12  1  0
 12 13  1  6
 13 14  1  0
 14 15  2  0
 14 16  1  0
 16 17  2  0
 17 18  1  0
 18 19  1  0
 16 20  1  0
 20 21  2  0
 21 22  1  0
 22 23  1  0
 23 24  1  0
 23 25  2  0
 12 26  1  0
 26 27  1  6
 27 28  1  0
 28  4  1  0
 26  9  1  0
 25 20  1  0
M  END
>  <zinc_id>  (1) 
ZINC000003830453

>  <smiles>  (1) 
COCC1=C(C(=O)O)N2C(=O)[C@@H](NC(=O)/C(=N\OC)c3csc(N)n3)[C@H]2SC1

$$$$
