
     RDKit          3D

 25 26  0  0  0  0  0  0  0  0999 V2000
    5.3926    0.5633    2.4915 C   0  0  0  0  0  0  0  0  0  0  0  0
    5.3812    0.3122    2.3806 C   0  0  0  0  0  0  0  0  0  0  0  0
    5.8611   -0.6945    1.3211 C   0  0  0  0  0  0  0  0  0  0  0  0
    5.6195   -0.2642    0.0040 N   0  0  0  0  0  0  0  0  0  0  0  0
    4.3478   -0.1698   -0.5051 C   0  0  0  0  0  0  0  0  0  0  0  0
    3.7020   -1.6837   -0.7025 C   0  0  2  0  0  0  0  0  0  0  0  0
    4.7917   -2.1051   -1.6886 O   0  0  0  0  0  0  0  0  0  0  0  0
    2.7137   -1.1760   -1.9235 C   0  0  0  0  0  0  0  0  0  0  0  0
    1.5681   -0.7080   -1.2076 O   0  0  0  0  0  0  0  0  0  0  0  0
    0.5092   -0.1796   -1.9219 C   0  0  0  0  0  0  0  0  0  0  0  0
    0.4660   -0.0649   -3.2881 C   0  0  0  0  0  0  0  0  0  0  0  0
   -0.6134    0.4721   -3.9639 C   0  0  0  0  0  0  0  0  0  0  0  0
   -1.6887    0.9084   -3.2224 C   0  0  0  0  0  0  0  0  0  0  0  0
   -1.6414    0.7898   -1.8378 C   0  0  0  0  0  0  0  0  0  0  0  0
   -0.5824    0.2619   -1.1742 C   0  0  0  0  0  0  0  0  0  0  0  0
   -0.5627    0.1196    0.2683 C   0  0  0  0  0  0  0  0  0  0  0  0
    0.3801   -0.4074    0.8896 O   0  0  0  0  0  0  0  0  0  0  0  0
   -1.7161    0.6214    1.0493 C   0  0  0  0  0  0  0  0  0  0  0  0
   -2.9102   -0.2069    0.5661 C   0  0  0  0  0  0  0  0  0  0  0  0
   -4.0873    0.2787    1.3382 C   0  0  0  0  0  0  0  0  0  0  0  0
   -4.8424    1.3460    0.9371 C   0  0  0  0  0  0  0  0  0  0  0  0
   -5.9301    1.7642    1.6651 C   0  0  0  0  0  0  0  0  0  0  0  0
   -6.2640    1.1055    2.8077 C   0  0  0  0  0  0  0  0  0  0  0  0
   -5.4906    0.0145    3.2166 C   0  0  0  0  0  0  0  0  0  0  0  0
   -4.4037   -0.4124    2.5002 C   0  0  0  0  0  0  0  0  0  0  0  0
  1  2  1  0
  2  3  1  0
  3  4  1  0
  4  5  1  0
  5  6  1  0
  6  7  1  6
  6  8  1  0
  8  9  1  0
  9 10  1  0
 10 11  2  0
 11 12  1  0
 12 13  2  0
 13 14  1  0
 14 15  2  0
 15 16  1  0
 16 17  2  0
 16 18  1  0
 18 19  1  0
 19 20  1  0
 20 21  2  0
 21 22  1  0
 22 23  2  0
 23 24  1  0
 24 25  2  0
 15 10  1  0
 25 20  1  0
M  END
>  <zinc_id>  (1) 
ZINC000001530759

>  <smiles>  (1) 
CCCNC[C@H](O)COc1ccccc1C(=O)CCc1ccccc1

$$$$
