
     RDKit          3D

 16 16  0  0  0  0  0  0  0  0999 V2000
   -0.3000   -2.1155   -1.3643 C   0  0  0  0  0  0  0  0  0  0  0  0
    0.0793   -1.3184   -1.5979 C   0  0  0  0  0  0  0  0  0  0  0  0
    0.5931   -0.0941   -0.6677 C   0  0  1  0  0  0  0  0  0  0  0  0
   -0.7826    0.1928   -0.0183 C   0  0  0  0  0  0  0  0  0  0  0  0
   -0.9933    0.1653    1.3088 C   0  0  0  0  0  0  0  0  0  0  0  0
   -2.2335    0.4345    1.8573 C   0  0  0  0  0  0  0  0  0  0  0  0
   -3.2824    0.7403    1.0137 C   0  0  0  0  0  0  0  0  0  0  0  0
   -3.0685    0.7678   -0.3341 C   0  0  0  0  0  0  0  0  0  0  0  0
   -4.1308    1.0735   -1.1630 O   0  0  0  0  0  0  0  0  0  0  0  0
   -1.8201    0.4955   -0.8604 C   0  0  0  0  0  0  0  0  0  0  0  0
    1.1734   -1.0993    0.5382 C   0  0  1  0  0  0  0  0  0  0  0  0
    2.2328   -1.8525   -0.4164 C   0  0  0  0  0  0  0  0  0  0  0  0
    2.1485   -0.0123    1.1580 C   0  0  0  0  0  0  0  0  0  0  0  0
    3.1327    0.4812    0.3540 N   0  0  0  0  0  0  0  0  0  0  0  0
    2.8648    1.3133   -0.7556 C   0  0  0  0  0  0  0  0  0  0  0  0
    4.3865    0.8278    0.9477 C   0  0  0  0  0  0  0  0  0  0  0  0
  1  2  1  0
  3  2  1  6
  3  4  1  0
  4  5  2  0
  5  6  1  0
  6  7  2  0
  7  8  1  0
  8  9  1  0
  8 10  2  0
  3 11  1  0
 11 12  1  6
 11 13  1  0
 13 14  1  0
 14 15  1  0
 14 16  1  0
 10  4  1  0
M  END
>  <zinc_id>  (1) 
ZINC000000020783

>  <smiles>  (1) 
CC[C@@H](c1cccc(O)c1)[C@@H](C)CN(C)C

$$$$
