
     RDKit          3D

 15 15  0  0  0  0  0  0  0  0999 V2000
    3.4621    0.8550   -1.3461 C   0  0  0  0  0  0  0  0  0  0  0  0
    3.7794   -0.3357   -0.4908 C   0  0  0  0  0  0  0  0  0  0  0  0
    4.0231    0.1271    0.9224 C   0  0  0  0  0  0  0  0  0  0  0  0
    2.8024   -1.4483   -0.6081 C   0  0  0  0  0  0  0  0  0  0  0  0
    1.4096   -1.0490   -0.2181 C   0  0  0  0  0  0  0  0  0  0  0  0
    0.5748   -0.5591   -1.1684 C   0  0  0  0  0  0  0  0  0  0  0  0
   -0.7160   -0.1905   -0.8002 C   0  0  0  0  0  0  0  0  0  0  0  0
   -1.1731   -0.3000    0.4644 C   0  0  0  0  0  0  0  0  0  0  0  0
   -2.6037    0.0986    0.9193 C   0  0  2  0  0  0  0  0  0  0  0  0
   -3.3919   -0.7739   -0.2689 C   0  0  0  0  0  0  0  0  0  0  0  0
   -2.7951    1.4782    0.1837 C   0  0  0  0  0  0  0  0  0  0  0  0
   -1.9981    2.0133   -0.5245 O   0  0  0  0  0  0  0  0  0  0  0  0
   -4.0004    2.0471    0.4269 O   0  0  0  0  0  0  0  0  0  0  0  0
   -0.3475   -0.7903    1.4315 C   0  0  0  0  0  0  0  0  0  0  0  0
    0.9744   -1.1725    1.0770 C   0  0  0  0  0  0  0  0  0  0  0  0
  1  2  1  0
  2  3  1  0
  2  4  1  0
  4  5  1  0
  5  6  2  0
  6  7  1  0
  7  8  2  0
  8  9  1  0
  9 10  1  6
  9 11  1  0
 11 12  2  0
 11 13  1  0
  8 14  1  0
 14 15  2  0
 15  5  1  0
M  END
>  <zinc_id>  (1) 
ZINC000000002647

>  <smiles>  (1) 
CC(C)Cc1ccc([C@H](C)C(=O)O)cc1

$$$$
