
     RDKit          3D

 27 30  0  0  0  0  0  0  0  0999 V2000
   -4.4354    1.8379    2.2375 N   0  0  0  0  0  0  0  0  0  0  0  0
   -4.6791    1.1872    0.8400 C   0  0  2  0  0  0  0  0  0  0  0  0
   -4.3940   -0.3282    1.3750 C   0  0  0  0  0  0  0  0  0  0  0  0
   -5.1392   -1.2026    0.3966 C   0  0  0  0  0  0  0  0  0  0  0  0
   -5.0266   -0.5406   -0.9418 C   0  0  0  0  0  0  0  0  0  0  0  0
   -3.6751   -0.2876   -1.4429 C   0  0  0  0  0  0  0  0  0  0  0  0
   -2.7728    0.4299   -0.5619 N   0  0  0  0  0  0  0  0  0  0  0  0
   -1.4229   -0.0086   -0.6618 C   0  0  0  0  0  0  0  0  0  0  0  0
   -1.0598   -1.0250   -1.5219 C   0  0  0  0  0  0  0  0  0  0  0  0
   -2.0653   -1.5835   -2.2652 F   0  0  0  0  0  0  0  0  0  0  0  0
    0.2470   -1.4726   -1.6430 C   0  0  0  0  0  0  0  0  0  0  0  0
    1.2423   -0.8936   -0.8829 C   0  0  0  0  0  0  0  0  0  0  0  0
    2.5635   -1.2959   -0.9586 C   0  0  0  0  0  0  0  0  0  0  0  0
    2.8973   -2.2276   -1.7467 O   0  0  0  0  0  0  0  0  0  0  0  0
    3.5583   -0.7174   -0.1991 C   0  0  0  0  0  0  0  0  0  0  0  0
    4.9619   -1.1356   -0.2711 C   0  0  0  0  0  0  0  0  0  0  0  0
    5.3415   -2.0569   -1.0392 O   0  0  0  0  0  0  0  0  0  0  0  0
    5.9308   -0.5348    0.5033 O   0  0  0  0  0  0  0  0  0  0  0  0
    3.1494    0.2919    0.6440 C   0  0  0  0  0  0  0  0  0  0  0  0
    1.8677    0.6921    0.7267 N   0  0  0  0  0  0  0  0  0  0  0  0
    1.4557    1.7655    1.6286 C   0  0  0  0  0  0  0  0  0  0  0  0
    2.4130    2.9897    1.4735 C   0  0  0  0  0  0  0  0  0  0  0  0
    2.4798    2.1180    2.7103 C   0  0  0  0  0  0  0  0  0  0  0  0
    0.8846    0.1228   -0.0216 C   0  0  0  0  0  0  0  0  0  0  0  0
   -0.4087    0.5591    0.0919 C   0  0  0  0  0  0  0  0  0  0  0  0
   -0.7770    1.8547    1.2045 Cl  0  0  0  0  0  0  0  0  0  0  0  0
   -3.1368    1.4617    0.3259 C   0  0  0  0  0  0  0  0  0  0  0  0
  2  1  1  1
  2  3  1  0
  3  4  1  0
  4  5  1  0
  5  6  1  0
  6  7  1  0
  7  8  1  0
  8  9  2  0
  9 10  1  0
  9 11  1  0
 11 12  2  0
 12 13  1  0
 13 14  2  0
 13 15  1  0
 15 16  1  0
 16 17  2  0
 16 18  1  0
 15 19  2  0
 19 20  1  0
 20 21  1  0
 21 22  1  0
 22 23  1  0
 20 24  1  0
 24 25  2  0
 25 26  1  0
  7 27  1  0
 27  2  1  0
 25  8  1  0
 24 12  1  0
 23 21  1  0
M  END
>  <zinc_id>  (1) 
ZINC000003787097

>  <smiles>  (1) 
N[C@@H]1CCCCN(c2c(F)cc3c(=O)c(C(=O)O)cn(C4CC4)c3c2Cl)C1

$$$$
