
     RDKit          3D

 31 32  0  0  0  0  0  0  0  0999 V2000
   -7.7086   -1.7772   -1.1456 C   0  0  0  0  0  0  0  0  0  0  0  0
   -6.8267   -0.8070   -0.6035 C   0  0  0  0  0  0  0  0  0  0  0  0
   -5.4589   -1.1013   -0.6040 C   0  0  0  0  0  0  0  0  0  0  0  0
   -4.9719   -2.3823   -1.1492 C   0  0  0  0  0  0  0  0  0  0  0  0
   -4.5859   -0.1801   -0.0859 C   0  0  0  0  0  0  0  0  0  0  0  0
   -5.0436    1.0336    0.4359 C   0  0  0  0  0  0  0  0  0  0  0  0
   -6.3582    1.3301    0.4429 C   0  0  0  0  0  0  0  0  0  0  0  0
   -6.8406    2.6318    1.0032 C   0  0  0  0  0  0  0  0  0  0  0  0
   -7.2532    0.3961   -0.0836 C   0  0  0  0  0  0  0  0  0  0  0  0
   -8.6158    0.6961   -0.0799 O   0  0  0  0  0  0  0  0  0  0  0  0
   -3.9947    1.9635    0.9771 C   0  0  0  0  0  0  0  0  0  0  0  0
   -2.8465    2.0231    0.0321 C   0  0  0  0  0  0  0  0  0  0  0  0
   -2.3678    0.6869   -0.4100 C   0  0  1  0  0  0  0  0  0  0  0  0
   -2.2756    0.7508   -1.9471 C   0  0  0  0  0  0  0  0  0  0  0  0
   -1.0064    0.3441    0.1660 C   0  0  0  0  0  0  0  0  0  0  0  0
    0.0437    1.2780   -0.2053 C   0  0  0  0  0  0  0  0  0  0  0  0
    1.3631    1.0124    0.3076 C   0  0  0  0  0  0  0  0  0  0  0  0
    1.9337   -0.3887   -0.2222 C   0  0  2  0  0  0  0  0  0  0  0  0
    0.8037   -1.3447    0.4397 C   0  0  0  0  0  0  0  0  0  0  0  0
    2.9819   -0.5752    1.0580 C   0  0  0  0  0  0  0  0  0  0  0  0
    3.6718   -1.8887    0.7766 C   0  0  0  0  0  0  0  0  0  0  0  0
    4.4227   -1.8676   -0.5445 C   0  0  0  0  0  0  0  0  0  0  0  0
    5.5042   -0.6210   -0.2786 C   0  0  2  0  0  0  0  0  0  0  0  0
    6.1372   -0.8362   -1.8077 C   0  0  0  0  0  0  0  0  0  0  0  0
    6.6012   -1.6240    0.4076 C   0  0  0  0  0  0  0  0  0  0  0  0
    7.7344   -0.7193    0.7859 C   0  0  0  0  0  0  0  0  0  0  0  0
    8.2800   -0.0566   -0.4496 C   0  0  0  0  0  0  0  0  0  0  0  0
    9.4253    0.8537   -0.0420 C   0  0  0  0  0  0  0  0  0  0  0  0
   10.5037    0.0434    0.6218 C   0  0  0  0  0  0  0  0  0  0  0  0
    9.9665    1.4824   -1.2921 C   0  0  0  0  0  0  0  0  0  0  0  0
   -3.2189   -0.3565   -0.0302 O   0  0  0  0  0  0  0  0  0  0  0  0
  1  2  1  0
  2  3  2  0
  3  4  1  0
  3  5  1  0
  5  6  2  0
  6  7  1  0
  7  8  1  0
  7  9  2  0
  9 10  1  0
  6 11  1  0
 11 12  1  0
 12 13  1  0
 13 14  1  6
 13 15  1  0
 15 16  1  0
 16 17  1  0
 17 18  1  0
 18 19  1  1
 18 20  1  0
 20 21  1  0
 21 22  1  0
 22 23  1  0
 23 24  1  6
 23 25  1  0
 25 26  1  0
 26 27  1  0
 27 28  1  0
 28 29  1  0
 28 30  1  0
 13 31  1  0
  9  2  1  0
 31  5  1  0
M  END
>  <zinc_id>  (1) 
ZINC000004095858

>  <smiles>  (1) 
Cc1c(C)c2c(c(C)c1O)CC[C@@](C)(CCC[C@H](C)CCC[C@H](C)CCCC(C)C)O2

$$$$
