
     RDKit          3D

 23 25  0  0  0  0  0  0  0  0999 V2000
   -4.6512    1.3239   -1.3555 C   0  0  0  0  0  0  0  0  0  0  0  0
   -4.1824    1.0881   -1.0571 O   0  0  0  0  0  0  0  0  0  0  0  0
   -3.0896    0.5235   -0.3626 C   0  0  0  0  0  0  0  0  0  0  0  0
   -2.9706   -0.8411   -0.3917 C   0  0  0  0  0  0  0  0  0  0  0  0
   -1.8935   -1.3993    0.2927 C   0  0  0  0  0  0  0  0  0  0  0  0
   -1.0376   -0.5671    0.9388 C   0  0  0  0  0  0  0  0  0  0  0  0
   -1.1629    0.7807    0.9624 C   0  0  0  0  0  0  0  0  0  0  0  0
   -2.2454    1.3669    0.2768 C   0  0  0  0  0  0  0  0  0  0  0  0
   -2.4072    2.7349    0.2774 O   0  0  0  0  0  0  0  0  0  0  0  0
   -1.4839    3.5558    0.9685 C   0  0  0  0  0  0  0  0  0  0  0  0
    0.1474   -1.2886    1.6914 C   0  0  2  0  0  0  0  0  0  0  0  0
    1.2307   -0.0437    1.5415 C   0  0  0  0  0  0  0  0  0  0  0  0
    2.4888   -0.5773    1.0936 C   0  0  0  0  0  0  0  0  0  0  0  0
    3.4783   -0.7369    1.7293 O   0  0  0  0  0  0  0  0  0  0  0  0
    2.5896   -1.0157   -0.4453 C   0  0  2  0  0  0  0  0  0  0  0  0
    2.5784    0.5387   -0.9989 C   0  0  0  0  0  0  0  0  0  0  0  0
    3.8208    1.0650   -0.3094 C   0  0  0  0  0  0  0  0  0  0  0  0
    5.0517    0.2622   -0.7464 C   0  0  0  0  0  0  0  0  0  0  0  0
    4.0319    2.5059   -0.5948 C   0  0  0  0  0  0  0  0  0  0  0  0
    0.9294   -1.1676   -0.6061 C   0  0  0  0  0  0  0  0  0  0  0  0
    0.6677   -2.0954    0.4240 N   0  0  0  0  0  0  0  0  0  0  0  0
   -0.2228   -3.1490    0.1744 C   0  0  0  0  0  0  0  0  0  0  0  0
   -1.6676   -2.8639    0.3364 C   0  0  0  0  0  0  0  0  0  0  0  0
  1  2  1  0
  2  3  1  0
  3  4  2  0
  4  5  1  0
  5  6  2  0
  6  7  1  0
  7  8  2  0
  8  9  1  0
  9 10  1  0
  6 11  1  0
 11 12  1  6
 12 13  1  0
 13 14  2  0
 13 15  1  0
 15 16  1  6
 16 17  1  0
 17 18  1  0
 17 19  1  0
 15 20  1  0
 20 21  1  0
 21 22  1  0
 22 23  1  0
  8  3  1  0
 21 11  1  0
 23  5  1  0
M  END
>  <zinc_id>  (1) 
ZINC000003875392

>  <smiles>  (1) 
COc1cc2c(cc1OC)[C@@H]1CC(=O)[C@H](CC(C)C)CN1CC2

$$$$
