
     RDKit          3D

  5  4  0  0  0  0  0  0  0  0999 V2000
    1.8823    0.2521    0.0617 N   0  0  0  0  0  0  0  0  0  0  0  0
    0.8068   -0.7005    0.2453 C   0  0  0  0  0  0  0  0  0  0  0  0
   -0.4872   -0.0272   -0.0263 C   0  0  0  0  0  0  0  0  0  0  0  0
   -0.5098    1.1852   -0.3561 O   0  0  0  0  0  0  0  0  0  0  0  0
   -1.6921   -0.7095    0.0754 O   0  0  0  0  0  0  0  0  0  0  0  0
  1  2  1  0
  2  3  1  0
  3  4  2  0
  3  5  1  0
M  END
>  <zinc_id>  (1) 
ZINC000004658552

>  <smiles>  (1) 
NCC(=O)O

$$$$
