
     RDKit          3D

 32 35  0  0  0  0  0  0  0  0999 V2000
    4.9900    2.9187    2.7051 C   0  0  0  0  0  0  0  0  0  0  0  0
    4.6716    2.3429    2.1674 O   0  0  0  0  0  0  0  0  0  0  0  0
    4.7846    1.0469    1.6665 N   0  0  0  0  0  0  0  0  0  0  0  0
    3.9514    0.5535    0.8250 C   0  0  0  0  0  0  0  0  0  0  0  0
    2.8456    1.3223    0.3503 C   0  0  0  0  0  0  0  0  0  0  0  0
    2.7226    2.4996    0.7539 O   0  0  0  0  0  0  0  0  0  0  0  0
    1.8201    0.9247   -0.5557 N   0  0  0  0  0  0  0  0  0  0  0  0
    0.7589    2.0145   -0.9047 C   0  0  2  0  0  0  0  0  0  0  0  0
   -0.1894    2.0130    0.3267 C   0  0  0  0  0  0  0  0  0  0  0  0
   -0.0276    2.3631    1.4660 O   0  0  0  0  0  0  0  0  0  0  0  0
   -1.2492    1.4676   -0.4021 N   0  0  0  0  0  0  0  0  0  0  0  0
   -2.5975    1.0871   -0.5468 C   0  0  0  0  0  0  0  0  0  0  0  0
   -3.5984    2.0903   -0.1938 C   0  0  0  0  0  0  0  0  0  0  0  0
   -4.8115    1.8207   -0.2833 O   0  0  0  0  0  0  0  0  0  0  0  0
   -3.2607    3.3516    0.2458 O   0  0  0  0  0  0  0  0  0  0  0  0
   -3.0084   -0.1345   -0.9625 C   0  0  0  0  0  0  0  0  0  0  0  0
   -4.4648   -0.3403   -1.0525 C   0  0  0  0  0  0  0  0  0  0  0  0
   -5.0116   -1.3854   -0.2730 N   0  0  0  0  0  0  0  0  0  0  0  0
   -6.4831   -1.4021   -0.3214 C   0  0  0  0  0  0  0  0  0  0  0  0
   -4.5570   -1.5225    1.0706 C   0  0  0  0  0  0  0  0  0  0  0  0
   -4.2903   -2.9711    1.3673 C   0  0  0  0  0  0  0  0  0  0  0  0
   -4.8259   -3.6914    0.1655 C   0  0  0  0  0  0  0  0  0  0  0  0
   -4.6483   -2.6625   -0.9339 C   0  0  0  0  0  0  0  0  0  0  0  0
   -2.0289   -1.2067   -1.2888 C   0  0  0  0  0  0  0  0  0  0  0  0
   -0.3079   -0.6617   -1.1497 S   0  0  0  0  0  0  0  0  0  0  0  0
   -0.4124    1.1375   -1.6744 C   0  0  2  0  0  0  0  0  0  0  0  0
    4.2310   -0.8302    0.3305 C   0  0  0  0  0  0  0  0  0  0  0  0
    3.3704   -1.4535   -0.5174 C   0  0  0  0  0  0  0  0  0  0  0  0
    4.1390   -2.9439   -0.8166 S   0  0  0  0  0  0  0  0  0  0  0  0
    5.5236   -2.6878    0.1597 C   0  0  0  0  0  0  0  0  0  0  0  0
    6.6472   -3.5715    0.3912 N   0  0  0  0  0  0  0  0  0  0  0  0
    5.3171   -1.4892    0.6537 N   0  0  0  0  0  0  0  0  0  0  0  0
  1  2  1  0
  2  3  1  0
  3  4  2  0
  4  5  1  0
  5  6  2  0
  5  7  1  0
  8  7  1  1
  8  9  1  0
  9 10  2  0
  9 11  1  0
 11 12  1  0
 12 13  1  0
 13 14  2  0
 13 15  1  0
 12 16  2  0
 16 17  1  0
 17 18  1  0
 18 19  1  0
 18 20  1  0
 20 21  1  0
 21 22  1  0
 22 23  1  0
 16 24  1  0
 24 25  1  0
 26 25  1  1
  4 27  1  0
 27 28  2  0
 28 29  1  0
 29 30  1  0
 30 31  1  0
 30 32  2  0
 26  8  1  0
 32 27  1  0
 26 11  1  0
 23 18  1  0
M  CHG  1  18   1
M  END
>  <zinc_id>  (1) 
ZINC000003871923

>  <smiles>  (1) 
CO/N=C(\C(=O)N[C@@H]1C(=O)N2C(C(=O)O)=C(C[N+]3(C)CCCC3)CS[C@H]12)c1csc(N)n1

$$$$
