
     RDKit          3D

 19 20  0  0  0  0  0  0  0  0999 V2000
    3.3539    0.9134    1.7308 C   0  0  0  0  0  0  0  0  0  0  0  0
    3.7125   -0.3227    0.7029 C   0  0  2  0  0  0  0  0  0  0  0  0
    4.0861    0.6340   -0.5266 C   0  0  0  0  0  0  0  0  0  0  0  0
    5.0612    0.2585   -1.2030 O   0  0  0  0  0  0  0  0  0  0  0  0
    3.4068    1.7451   -0.8045 O   0  0  0  0  0  0  0  0  0  0  0  0
    2.2379   -0.6525    0.2313 C   0  0  0  0  0  0  0  0  0  0  0  0
    2.0854   -1.6251   -0.7107 C   0  0  0  0  0  0  0  0  0  0  0  0
    0.8026   -1.9539   -1.1635 C   0  0  0  0  0  0  0  0  0  0  0  0
   -0.2734   -1.2719   -0.6303 C   0  0  0  0  0  0  0  0  0  0  0  0
   -0.1056   -0.3066    0.3066 C   0  0  0  0  0  0  0  0  0  0  0  0
   -1.2436    0.4215    0.9108 C   0  0  0  0  0  0  0  0  0  0  0  0
   -1.0370    1.1647    1.9004 O   0  0  0  0  0  0  0  0  0  0  0  0
   -2.5851    0.3105    0.4162 C   0  0  0  0  0  0  0  0  0  0  0  0
   -3.5020    1.3057    0.6241 C   0  0  0  0  0  0  0  0  0  0  0  0
   -4.8199    1.1819    0.1552 C   0  0  0  0  0  0  0  0  0  0  0  0
   -5.1333    0.0298   -0.5083 C   0  0  0  0  0  0  0  0  0  0  0  0
   -4.2449   -1.0071   -0.7448 C   0  0  0  0  0  0  0  0  0  0  0  0
   -2.9723   -0.8158   -0.2575 C   0  0  0  0  0  0  0  0  0  0  0  0
    1.1707   -0.0092    0.7268 C   0  0  0  0  0  0  0  0  0  0  0  0
  2  1  1  1
  2  3  1  0
  3  4  2  0
  3  5  1  0
  2  6  1  0
  6  7  2  0
  7  8  1  0
  8  9  2  0
  9 10  1  0
 10 11  1  0
 11 12  2  0
 11 13  1  0
 13 14  2  0
 14 15  1  0
 15 16  2  0
 16 17  1  0
 17 18  2  0
 10 19  2  0
 19  6  1  0
 18 13  1  0
M  END
>  <zinc_id>  (1) 
ZINC000000005560

>  <smiles>  (1) 
C[C@H](C(=O)O)c1cccc(C(=O)c2ccccc2)c1

$$$$
