
     RDKit          3D

 19 20  0  0  0  0  0  0  0  0999 V2000
   -5.1702    1.4155    2.1123 N   0  0  0  0  0  0  0  0  0  0  0  0
   -3.9696    0.7796    1.6489 C   0  0  0  0  0  0  0  0  0  0  0  0
   -3.1445    0.4519    2.5383 O   0  0  0  0  0  0  0  0  0  0  0  0
   -3.7680    0.5484    0.1992 C   0  0  0  0  0  0  0  0  0  0  0  0
   -2.4535   -0.1242   -0.0029 C   0  0  0  0  0  0  0  0  0  0  0  0
   -2.4487   -1.4639   -0.2808 C   0  0  0  0  0  0  0  0  0  0  0  0
   -1.2466   -2.0999   -0.4691 C   0  0  0  0  0  0  0  0  0  0  0  0
   -0.0602   -1.4037   -0.3804 C   0  0  0  0  0  0  0  0  0  0  0  0
   -0.0447   -0.0516   -0.1008 C   0  0  0  0  0  0  0  0  0  0  0  0
    1.1919    0.6986   -0.0012 C   0  0  0  0  0  0  0  0  0  0  0  0
    1.1297    1.9240    0.2576 O   0  0  0  0  0  0  0  0  0  0  0  0
    2.5059    0.0793   -0.1906 C   0  0  0  0  0  0  0  0  0  0  0  0
    3.6571    0.6097    0.3868 C   0  0  0  0  0  0  0  0  0  0  0  0
    4.8898   -0.0164    0.1764 C   0  0  0  0  0  0  0  0  0  0  0  0
    5.0072   -1.1507   -0.5899 C   0  0  0  0  0  0  0  0  0  0  0  0
    3.8699   -1.6728   -1.1592 C   0  0  0  0  0  0  0  0  0  0  0  0
    2.6778   -1.0572   -0.9485 C   0  0  0  0  0  0  0  0  0  0  0  0
   -1.2578    0.5675    0.0843 C   0  0  0  0  0  0  0  0  0  0  0  0
   -1.3656    1.9661    0.3780 N   0  0  0  0  0  0  0  0  0  0  0  0
  1  2  1  0
  2  3  2  0
  2  4  1  0
  4  5  1  0
  5  6  2  0
  6  7  1  0
  7  8  2  0
  8  9  1  0
  9 10  1  0
 10 11  2  0
 10 12  1  0
 12 13  2  0
 13 14  1  0
 14 15  2  0
 15 16  1  0
 16 17  2  0
  9 18  2  0
 18 19  1  0
 18  5  1  0
 17 12  1  0
M  END
>  <zinc_id>  (1) 
ZINC000005162311

>  <smiles>  (1) 
NC(=O)Cc1cccc(C(=O)c2ccccc2)c1N

$$$$
