
     RDKit          3D

 10 10  0  0  0  0  0  0  0  0999 V2000
   -1.0059    2.5016    0.0685 C   0  0  0  0  0  0  0  0  0  0  0  0
   -0.3026    1.1834    0.0328 C   0  0  0  0  0  0  0  0  0  0  0  0
    1.0758    1.1201    0.0342 C   0  0  0  0  0  0  0  0  0  0  0  0
    1.7417   -0.0878    0.0015 C   0  0  0  0  0  0  0  0  0  0  0  0
    3.1334   -0.1517    0.0029 O   0  0  0  0  0  0  0  0  0  0  0  0
    0.9566   -1.2220   -0.0324 C   0  0  0  0  0  0  0  0  0  0  0  0
   -0.4273   -1.1632   -0.0339 C   0  0  0  0  0  0  0  0  0  0  0  0
   -1.2667   -2.4037   -0.0709 C   0  0  0  0  0  0  0  0  0  0  0  0
   -1.0763    0.0508   -0.0010 C   0  0  0  0  0  0  0  0  0  0  0  0
   -2.8286    0.1725   -0.0016 Cl  0  0  0  0  0  0  0  0  0  0  0  0
  1  2  1  0
  2  3  2  0
  3  4  1  0
  4  5  1  0
  4  6  2  0
  6  7  1  0
  7  8  1  0
  7  9  2  0
  9 10  1  0
  9  2  1  0
M  END
>  <zinc_id>  (1) 
ZINC000000001132

>  <smiles>  (1) 
Cc1cc(O)cc(C)c1Cl

$$$$
