
     RDKit          3D

 10  9  0  0  0  0  0  0  0  0999 V2000
    2.0499   -0.7038    1.1133 F   0  0  0  0  0  0  0  0  0  0  0  0
    1.4279   -0.9262    0.0918 C   0  0  0  0  0  0  0  0  0  0  0  0
    2.2307   -1.5651   -0.8305 F   0  0  0  0  0  0  0  0  0  0  0  0
    0.9415    0.2184   -0.4760 O   0  0  0  0  0  0  0  0  0  0  0  0
    0.0345    0.8937    0.4748 C   0  0  1  0  0  0  0  0  0  0  0  0
   -0.3533    2.3649   -0.6568 Cl  0  0  0  0  0  0  0  0  0  0  0  0
   -1.2957    0.0731    0.1188 C   0  0  0  0  0  0  0  0  0  0  0  0
   -1.0696   -1.2578    0.3837 F   0  0  0  0  0  0  0  0  0  0  0  0
   -1.6864    0.3117   -1.1609 F   0  0  0  0  0  0  0  0  0  0  0  0
   -2.2796    0.5912    0.9419 F   0  0  0  0  0  0  0  0  0  0  0  0
  1  2  1  0
  2  3  1  0
  2  4  1  0
  4  5  1  0
  5  6  1  6
  5  7  1  0
  7  8  1  0
  7  9  1  0
  7 10  1  0
M  END
>  <zinc_id>  (1) 
ZINC000003812960

>  <smiles>  (1) 
FC(F)O[C@@H](Cl)C(F)(F)F

$$$$
