
     RDKit          3D

 28 31  0  0  0  0  0  0  0  0999 V2000
   -4.9641   -0.1684    2.7012 C   0  0  0  0  0  0  0  0  0  0  0  0
   -4.4771    0.0574    1.3776 C   0  0  0  0  0  0  0  0  0  0  0  0
   -5.3755   -0.0862    0.4763 O   0  0  0  0  0  0  0  0  0  0  0  0
   -3.1622    0.3971    1.1112 O   0  0  0  0  0  0  0  0  0  0  0  0
   -2.7922    0.6121   -0.1884 C   0  0  2  0  0  0  0  0  0  0  0  0
   -3.4619    1.7557   -0.7775 C   0  0  0  0  0  0  0  0  0  0  0  0
   -4.2998    2.6373    0.0616 C   0  0  0  0  0  0  0  0  0  0  0  0
   -3.3675    2.0408   -1.9542 O   0  0  0  0  0  0  0  0  0  0  0  0
   -3.1229   -0.7146   -0.9116 C   0  0  0  0  0  0  0  0  0  0  0  0
   -1.8524   -1.5616   -0.8337 C   0  0  0  0  0  0  0  0  0  0  0  0
   -0.9424   -0.7187    0.1838 C   0  0  1  0  0  0  0  0  0  0  0  0
    0.4777   -0.9346   -0.6688 C   0  0  2  0  0  0  0  0  0  0  0  0
    1.0042   -2.0446    0.3926 C   0  0  0  0  0  0  0  0  0  0  0  0
    2.3879   -2.5096   -0.2655 C   0  0  2  0  0  0  0  0  0  0  0  0
    2.9165   -3.2734    1.0610 C   0  0  0  0  0  0  0  0  0  0  0  0
    3.2218   -1.2307   -0.0974 C   0  0  0  0  0  0  0  0  0  0  0  0
    4.3973   -1.2506    0.5031 C   0  0  0  0  0  0  0  0  0  0  0  0
    5.1368    0.0410    0.6122 C   0  0  0  0  0  0  0  0  0  0  0  0
    5.9044    0.3020    1.5175 O   0  0  0  0  0  0  0  0  0  0  0  0
    4.9054    1.0478   -0.4572 C   0  0  0  0  0  0  0  0  0  0  0  0
    3.4387    1.2712   -0.4529 C   0  0  0  0  0  0  0  0  0  0  0  0
    2.7124   -0.0029   -0.6113 C   0  0  1  0  0  0  0  0  0  0  0  0
    2.4232   -0.1598   -2.0707 C   0  0  0  0  0  0  0  0  0  0  0  0
    1.2902    0.2423    0.1761 C   0  0  1  0  0  0  0  0  0  0  0  0
    0.8412    1.4539   -0.7869 C   0  0  0  0  0  0  0  0  0  0  0  0
   -0.5171    1.7445   -0.1617 C   0  0  0  0  0  0  0  0  0  0  0  0
   -1.3618    0.6446   -0.5411 C   0  0  2  0  0  0  0  0  0  0  0  0
   -1.3610    0.4080   -2.0490 C   0  0  0  0  0  0  0  0  0  0  0  0
  1  2  1  0
  2  3  2  0
  2  4  1  0
  5  4  1  1
  5  6  1  0
  6  7  1  0
  6  8  2  0
  5  9  1  0
  9 10  1  0
 11 10  1  6
 11 12  1  0
 12 13  1  1
 13 14  1  0
 14 15  1  1
 14 16  1  0
 16 17  2  0
 17 18  1  0
 18 19  2  0
 18 20  1  0
 20 21  1  0
 21 22  1  0
 22 23  1  6
 22 24  1  0
 24 25  1  6
 25 26  1  0
 26 27  1  0
 27 28  1  6
 27  5  1  0
 27 11  1  0
 24 12  1  0
 22 16  1  0
M  END
>  <zinc_id>  (1) 
ZINC000005029557

>  <smiles>  (1) 
CC(=O)O[C@]1(C(C)=O)CC[C@H]2[C@@H]3C[C@H](C)C4=CC(=O)CC[C@]4(C)[C@H]3CC[C@@]21C

$$$$
