
     RDKit          3D

 21 21  0  0  0  0  0  0  0  0999 V2000
    5.8949   -1.6196    1.6446 C   0  0  0  0  0  0  0  0  0  0  0  0
    5.3853   -0.9282    0.5859 C   0  0  0  0  0  0  0  0  0  0  0  0
    5.7779    0.5024    0.4932 C   0  0  0  0  0  0  0  0  0  0  0  0
    5.3215    1.3484   -0.5599 C   0  0  0  0  0  0  0  0  0  0  0  0
    3.7476    1.5971   -0.6572 C   0  0  2  0  0  0  0  0  0  0  0  0
    3.5858    2.2554    0.8382 C   0  0  0  0  0  0  0  0  0  0  0  0
    2.0978    2.5517    0.8916 C   0  0  0  0  0  0  0  0  0  0  0  0
    3.2431    0.1271   -0.2233 C   0  0  0  0  0  0  0  0  0  0  0  0
    1.8283    0.2100   -0.2685 O   0  0  0  0  0  0  0  0  0  0  0  0
    1.0486   -0.8878    0.0498 C   0  0  0  0  0  0  0  0  0  0  0  0
    1.6252   -1.9539    0.3780 O   0  0  0  0  0  0  0  0  0  0  0  0
   -0.4069   -0.8941    0.0308 C   0  0  0  0  0  0  0  0  0  0  0  0
   -1.1434    0.1311   -0.2874 C   0  0  0  0  0  0  0  0  0  0  0  0
   -2.5926    0.0597   -0.2868 C   0  0  0  0  0  0  0  0  0  0  0  0
   -3.3959    1.1277   -0.6188 C   0  0  0  0  0  0  0  0  0  0  0  0
   -4.7863    0.9755   -0.5931 C   0  0  0  0  0  0  0  0  0  0  0  0
   -5.3844   -0.1957   -0.2501 C   0  0  0  0  0  0  0  0  0  0  0  0
   -6.7558   -0.3878   -0.2121 O   0  0  0  0  0  0  0  0  0  0  0  0
   -7.3237   -1.6295    0.1524 C   0  0  0  0  0  0  0  0  0  0  0  0
   -4.5723   -1.2604    0.0810 C   0  0  0  0  0  0  0  0  0  0  0  0
   -3.1947   -1.1291    0.0613 C   0  0  0  0  0  0  0  0  0  0  0  0
  1  2  1  0
  2  3  1  0
  3  4  1  0
  5  4  1  1
  5  6  1  0
  6  7  1  0
  5  8  1  0
  8  9  1  0
  9 10  1  0
 10 11  2  0
 10 12  1  0
 12 13  2  0
 13 14  1  0
 14 15  2  0
 15 16  1  0
 16 17  2  0
 17 18  1  0
 18 19  1  0
 17 20  1  0
 20 21  2  0
 21 14  1  0
M  END
>  <zinc_id>  (1) 
ZINC000001633889

>  <smiles>  (1) 
CCCC[C@H](CC)COC(=O)/C=C/c1ccc(OC)cc1

$$$$
