
     RDKit          3D

 33 35  0  0  0  0  0  0  0  0999 V2000
    2.7323    1.0305    1.7996 C   0  0  0  0  0  0  0  0  0  0  0  0
    3.4276   -0.0952    1.4624 N   0  0  0  0  0  0  0  0  0  0  0  0
    4.7337   -0.0586    1.0412 C   0  0  0  0  0  0  0  0  0  0  0  0
    5.5762   -1.1648    0.9669 C   0  0  0  0  0  0  0  0  0  0  0  0
    6.8450   -1.0769    0.5479 N   0  0  0  0  0  0  0  0  0  0  0  0
    7.3523    0.1104    0.1766 C   0  0  0  0  0  0  0  0  0  0  0  0
    8.6982    0.2421   -0.2778 N   0  0  0  0  0  0  0  0  0  0  0  0
    6.5580    1.1956    0.2398 N   0  0  0  0  0  0  0  0  0  0  0  0
    5.2868    1.1422    0.6548 C   0  0  0  0  0  0  0  0  0  0  0  0
    4.6197    2.1866    0.6833 O   0  0  0  0  0  0  0  0  0  0  0  0
    4.9438   -2.3880    1.3821 N   0  0  0  0  0  0  0  0  0  0  0  0
    3.8658   -2.2767    2.2879 C   0  0  0  0  0  0  0  0  0  0  0  0
    2.6375   -1.4485    1.5822 C   0  0  2  0  0  0  0  0  0  0  0  0
    2.9408   -1.9625    0.0514 C   0  0  0  0  0  0  0  0  0  0  0  0
    2.3786   -0.9555   -0.8172 N   0  0  0  0  0  0  0  0  0  0  0  0
    0.9975   -0.7359   -0.7644 C   0  0  0  0  0  0  0  0  0  0  0  0
    0.1489   -1.3911    0.1204 C   0  0  0  0  0  0  0  0  0  0  0  0
   -1.2033   -1.1444    0.1105 C   0  0  0  0  0  0  0  0  0  0  0  0
   -1.7658   -0.2586   -0.7522 C   0  0  0  0  0  0  0  0  0  0  0  0
   -3.2045    0.0166   -0.8081 C   0  0  0  0  0  0  0  0  0  0  0  0
   -4.0674   -0.8069   -0.4502 O   0  0  0  0  0  0  0  0  0  0  0  0
   -3.5773    1.2467   -1.2781 N   0  0  0  0  0  0  0  0  0  0  0  0
   -5.0332    1.7443   -1.4289 C   0  0  1  0  0  0  0  0  0  0  0  0
   -5.7623    0.3302   -1.0017 C   0  0  0  0  0  0  0  0  0  0  0  0
   -7.2073    0.7531   -1.1398 C   0  0  0  0  0  0  0  0  0  0  0  0
   -8.1585   -0.3205   -0.8045 C   0  0  0  0  0  0  0  0  0  0  0  0
   -9.3883   -0.0379   -0.9770 O   0  0  0  0  0  0  0  0  0  0  0  0
   -7.8689   -1.5629   -0.3379 O   0  0  0  0  0  0  0  0  0  0  0  0
   -5.2419    2.4432   -0.0223 C   0  0  0  0  0  0  0  0  0  0  0  0
   -4.3449    2.3996    0.8129 O   0  0  0  0  0  0  0  0  0  0  0  0
   -6.4345    3.0748    0.1990 O   0  0  0  0  0  0  0  0  0  0  0  0
   -0.9282    0.3876   -1.6198 C   0  0  0  0  0  0  0  0  0  0  0  0
    0.4437    0.1619   -1.6389 C   0  0  0  0  0  0  0  0  0  0  0  0
  1  2  1  0
  2  3  1  0
  3  4  2  0
  4  5  1  0
  5  6  2  0
  6  7  1  0
  6  8  1  0
  8  9  1  0
  9 10  2  0
  4 11  1  0
 11 12  1  0
 12 13  1  0
 13 14  1  6
 14 15  1  0
 15 16  1  0
 16 17  2  0
 17 18  1  0
 18 19  2  0
 19 20  1  0
 20 21  2  0
 20 22  1  0
 22 23  1  0
 23 24  1  1
 24 25  1  0
 25 26  1  0
 26 27  2  0
 26 28  1  0
 23 29  1  0
 29 30  2  0
 29 31  1  0
 19 32  1  0
 32 33  2  0
 13  2  1  0
 33 16  1  0
  9  3  1  0
M  END
>  <zinc_id>  (1) 
ZINC000002005305

>  <smiles>  (1) 
CN1c2c(nc(N)[nH]c2=O)NC[C@@H]1CNc1ccc(C(=O)N[C@@H](CCC(=O)O)C(=O)O)cc1

$$$$
