
     RDKit          3D

 18 19  0  0  0  0  0  0  0  0999 V2000
   -0.7181   -1.2874   -2.0781 C   0  0  0  0  0  0  0  0  0  0  0  0
   -1.7307   -0.5558   -1.3725 C   0  0  0  0  0  0  0  0  0  0  0  0
   -3.0444   -0.5754   -1.8813 C   0  0  0  0  0  0  0  0  0  0  0  0
   -4.0558    0.1082   -1.2422 C   0  0  0  0  0  0  0  0  0  0  0  0
   -3.7426    0.8067   -0.0972 C   0  0  0  0  0  0  0  0  0  0  0  0
   -2.4267    0.8187    0.4011 C   0  0  0  0  0  0  0  0  0  0  0  0
   -2.0927    1.5673    1.6292 C   0  0  0  0  0  0  0  0  0  0  0  0
   -1.4217    0.1390   -0.2347 C   0  0  0  0  0  0  0  0  0  0  0  0
   -0.1168    0.1453    0.2488 N   0  0  0  0  0  0  0  0  0  0  0  0
    0.5516   -0.6530    1.1044 C   0  0  0  0  0  0  0  0  0  0  0  0
   -0.0520   -1.6177    1.6081 O   0  0  0  0  0  0  0  0  0  0  0  0
    2.0230   -0.3771    1.4485 C   0  0  1  0  0  0  0  0  0  0  0  0
    2.6723   -1.4376    0.3856 C   0  0  0  0  0  0  0  0  0  0  0  0
    4.0205   -0.8718    0.0067 C   0  0  0  0  0  0  0  0  0  0  0  0
    3.7457    0.1906   -1.0405 C   0  0  0  0  0  0  0  0  0  0  0  0
    2.3435    0.6879   -0.7318 C   0  0  0  0  0  0  0  0  0  0  0  0
    2.2940    0.8884    0.6382 N   0  0  0  0  0  0  0  0  0  0  0  0
    1.7508    2.0238    1.2076 C   0  0  0  0  0  0  0  0  0  0  0  0
  1  2  1  0
  2  3  2  0
  3  4  1  0
  4  5  2  0
  5  6  1  0
  6  7  1  0
  6  8  2  0
  8  9  1  0
  9 10  1  0
 10 11  2  0
 12 10  1  6
 12 13  1  0
 13 14  1  0
 14 15  1  0
 15 16  1  0
 16 17  1  0
 17 18  1  0
  8  2  1  0
 17 12  1  0
M  END
>  <zinc_id>  (1) 
ZINC000000000456

>  <smiles>  (1) 
Cc1cccc(C)c1NC(=O)[C@H]1CCCCN1C

$$$$
