
     RDKit          3D

 18 20  0  0  0  0  0  0  0  0999 V2000
    5.6978    0.7237   -0.8025 C   0  0  0  0  0  0  0  0  0  0  0  0
    5.0596   -0.2856   -1.1142 C   0  0  0  0  0  0  0  0  0  0  0  0
    3.9570   -0.6369   -0.2450 C   0  0  0  0  0  0  0  0  0  0  0  0
    3.7063    0.1557    0.7642 O   0  0  0  0  0  0  0  0  0  0  0  0
    3.0705   -1.7557   -0.3154 N   0  0  0  0  0  0  0  0  0  0  0  0
    2.0159   -1.8414    0.7512 C   0  0  0  0  0  0  0  0  0  0  0  0
    1.1800   -0.4063    0.4171 C   0  0  2  0  0  0  0  0  0  0  0  0
    0.0835   -0.6365    1.7806 C   0  0  0  0  0  0  0  0  0  0  0  0
   -0.3383   -1.2187    0.2107 C   0  0  1  0  0  0  0  0  0  0  0  0
   -1.1892    0.0764   -0.2368 C   0  0  0  0  0  0  0  0  0  0  0  0
   -0.5992    1.0666   -0.9182 C   0  0  0  0  0  0  0  0  0  0  0  0
   -1.4525    2.1136   -1.3566 C   0  0  0  0  0  0  0  0  0  0  0  0
   -2.8104    2.0636   -1.0692 C   0  0  0  0  0  0  0  0  0  0  0  0
   -3.3619    1.0248   -0.3700 C   0  0  0  0  0  0  0  0  0  0  0  0
   -2.5156    0.0142    0.0500 C   0  0  0  0  0  0  0  0  0  0  0  0
   -3.2897   -0.9975    0.8053 C   0  0  0  0  0  0  0  0  0  0  0  0
   -4.5467   -0.1722    1.1956 C   0  0  0  0  0  0  0  0  0  0  0  0
   -4.6670    0.7124    0.0548 O   0  0  0  0  0  0  0  0  0  0  0  0
  1  2  1  0
  2  3  1  0
  3  4  2  0
  3  5  1  0
  5  6  1  0
  7  6  1  1
  7  8  1  0
  8  9  1  0
  9 10  1  6
 10 11  2  0
 11 12  1  0
 12 13  2  0
 13 14  1  0
 14 15  2  0
 15 16  1  0
 16 17  1  0
 17 18  1  0
  9  7  1  0
 15 10  1  0
 18 14  1  0
M  END
>  <zinc_id>  (1) 
ZINC000004392649

>  <smiles>  (1) 
CCC(=O)NC[C@@H]1C[C@H]1c1cccc2c1CCO2

$$$$
