
     RDKit          3D

 29 30  0  0  0  0  0  0  0  0999 V2000
    1.6851    0.7697    2.0860 C   0  0  0  0  0  0  0  0  0  0  0  0
    1.5813    0.1479    0.7307 C   0  0  2  0  0  0  0  0  0  0  0  0
    2.4556   -0.9355    0.6989 O   0  0  0  0  0  0  0  0  0  0  0  0
    1.8669    1.0491   -0.3967 C   0  0  0  0  0  0  0  0  0  0  0  0
    3.3992    1.8104   -0.5224 S   0  0  0  0  0  0  0  0  0  0  0  0
    3.7598    2.7460    0.5817 O   0  0  0  0  0  0  0  0  0  0  0  0
    3.4660    2.6203   -1.8071 O   0  0  0  0  0  0  0  0  0  0  0  0
    4.6680    0.6151   -0.6329 C   0  0  0  0  0  0  0  0  0  0  0  0
    5.3236    0.1592    0.4902 C   0  0  0  0  0  0  0  0  0  0  0  0
    6.3373   -0.7952    0.4063 C   0  0  0  0  0  0  0  0  0  0  0  0
    6.7133   -1.3106   -0.8027 C   0  0  0  0  0  0  0  0  0  0  0  0
    7.6905   -2.2314   -0.8894 F   0  0  0  0  0  0  0  0  0  0  0  0
    6.0594   -0.8597   -1.9508 C   0  0  0  0  0  0  0  0  0  0  0  0
    5.0604    0.0842   -1.8438 C   0  0  0  0  0  0  0  0  0  0  0  0
    0.1993   -0.3833    0.5735 C   0  0  0  0  0  0  0  0  0  0  0  0
    0.0280   -1.6173    0.4459 O   0  0  0  0  0  0  0  0  0  0  0  0
   -0.9599    0.4386    0.5589 N   0  0  0  0  0  0  0  0  0  0  0  0
   -2.2692   -0.1483    0.4021 C   0  0  0  0  0  0  0  0  0  0  0  0
   -2.4296   -1.5094    0.2638 C   0  0  0  0  0  0  0  0  0  0  0  0
   -3.6819   -2.1014    0.1111 C   0  0  0  0  0  0  0  0  0  0  0  0
   -4.8087   -1.3006    0.0968 C   0  0  0  0  0  0  0  0  0  0  0  0
   -6.1337   -1.8613   -0.0588 C   0  0  0  0  0  0  0  0  0  0  0  0
   -7.1718   -2.3206   -0.1743 N   0  0  0  0  0  0  0  0  0  0  0  0
   -4.6599    0.0643    0.2345 C   0  0  0  0  0  0  0  0  0  0  0  0
   -5.8940    0.9034    0.2153 C   0  0  0  0  0  0  0  0  0  0  0  0
   -6.5988    0.7865   -0.9454 F   0  0  0  0  0  0  0  0  0  0  0  0
   -5.5307    2.2067    0.4923 F   0  0  0  0  0  0  0  0  0  0  0  0
   -6.7549    0.5209    1.2501 F   0  0  0  0  0  0  0  0  0  0  0  0
   -3.4004    0.6381    0.3862 C   0  0  0  0  0  0  0  0  0  0  0  0
  2  1  1  1
  2  3  1  0
  2  4  1  0
  4  5  1  0
  5  6  2  0
  5  7  2  0
  5  8  1  0
  8  9  2  0
  9 10  1  0
 10 11  2  0
 11 12  1  0
 11 13  1  0
 13 14  2  0
  2 15  1  0
 15 16  2  0
 15 17  1  0
 17 18  1  0
 18 19  2  0
 19 20  1  0
 20 21  2  0
 21 22  1  0
 22 23  3  0
 21 24  1  0
 24 25  1  0
 25 26  1  0
 25 27  1  0
 25 28  1  0
 24 29  2  0
 14  8  1  0
 29 18  1  0
M  END
>  <zinc_id>  (1) 
ZINC000000538564

>  <smiles>  (1) 
C[C@](O)(CS(=O)(=O)c1ccc(F)cc1)C(=O)Nc1ccc(C#N)c(C(F)(F)F)c1

$$$$
