
     RDKit          3D

 14 15  0  0  0  0  0  0  0  0999 V2000
   -1.9830    0.7314    1.7580 N   0  0  0  0  0  0  0  0  0  0  0  0
   -2.7494    0.2238    0.2206 S   0  0  0  0  0  0  0  0  0  0  0  0
   -3.4041   -1.0472    0.4005 O   0  0  0  0  0  0  0  0  0  0  0  0
   -3.7713    1.3381    0.0092 O   0  0  0  0  0  0  0  0  0  0  0  0
   -1.5069    0.3838   -1.0034 C   0  0  0  0  0  0  0  0  0  0  0  0
   -0.3260   -0.4827   -0.7360 C   0  0  0  0  0  0  0  0  0  0  0  0
   -0.0659   -1.7516   -0.7876 N   0  0  0  0  0  0  0  0  0  0  0  0
    1.1521   -2.0138   -0.4559 O   0  0  0  0  0  0  0  0  0  0  0  0
    1.7639   -0.8950   -0.1598 C   0  0  0  0  0  0  0  0  0  0  0  0
    3.0567   -0.5933    0.2862 C   0  0  0  0  0  0  0  0  0  0  0  0
    3.3356    0.7250    0.5290 C   0  0  0  0  0  0  0  0  0  0  0  0
    2.4572    1.7759    0.3583 C   0  0  0  0  0  0  0  0  0  0  0  0
    1.1608    1.4684   -0.0922 C   0  0  0  0  0  0  0  0  0  0  0  0
    0.8803    0.1372   -0.3271 C   0  0  0  0  0  0  0  0  0  0  0  0
  1  2  1  0
  2  3  2  0
  2  4  2  0
  2  5  1  0
  5  6  1  0
  6  7  2  0
  7  8  1  0
  8  9  1  0
  9 10  2  0
 10 11  1  0
 11 12  2  0
 12 13  1  0
 13 14  2  0
 14  6  1  0
 14  9  1  0
M  END
>  <zinc_id>  (1) 
ZINC000000004321

>  <smiles>  (1) 
NS(=O)(=O)Cc1noc2ccccc12

$$$$
