
     RDKit          3D

 30 32  0  0  0  0  0  0  0  0999 V2000
    3.7230   -1.7202    0.2658 C   0  0  0  0  0  0  0  0  0  0  0  0
    4.7248   -0.8983    0.4768 C   0  0  0  0  0  0  0  0  0  0  0  0
    4.6808    0.4011   -0.1111 C   0  0  0  0  0  0  0  0  0  0  0  0
    3.5378    1.1013   -0.2038 C   0  0  0  0  0  0  0  0  0  0  0  0
    2.3650    0.4383    0.3341 C   0  0  0  0  0  0  0  0  0  0  0  0
    1.2599    1.1120    0.2459 C   0  0  0  0  0  0  0  0  0  0  0  0
    1.2720    2.3964   -0.3450 C   0  0  0  0  0  0  0  0  0  0  0  0
    0.0629    3.2506   -0.2167 C   0  0  0  0  0  0  0  0  0  0  0  0
   -1.0787    2.5117    0.4179 C   0  0  0  0  0  0  0  0  0  0  0  0
   -1.1044    1.1839   -0.1729 C   0  0  1  0  0  0  0  0  0  0  0  0
   -0.8068    0.9100   -1.5313 C   0  0  0  0  0  0  0  0  0  0  0  0
   -0.0292    0.4008    0.8299 C   0  0  1  0  0  0  0  0  0  0  0  0
   -0.0590   -0.8845   -0.1718 C   0  0  0  0  0  0  0  0  0  0  0  0
   -1.5494   -1.0992   -0.3060 C   0  0  0  0  0  0  0  0  0  0  0  0
   -2.1895    0.2056    0.4520 C   0  0  2  0  0  0  0  0  0  0  0  0
   -3.3661    0.4436   -0.7397 C   0  0  2  0  0  0  0  0  0  0  0  0
   -3.5022    2.0244   -0.4537 C   0  0  0  0  0  0  0  0  0  0  0  0
   -4.5759    0.0534    0.2261 C   0  0  0  0  0  0  0  0  0  0  0  0
   -5.5466   -0.5792   -0.4546 C   0  0  0  0  0  0  0  0  0  0  0  0
   -6.7306   -0.9383    0.5945 C   0  0  2  0  0  0  0  0  0  0  0  0
   -7.1001   -2.3386   -0.1765 C   0  0  0  0  0  0  0  0  0  0  0  0
   -7.8455   -0.0612   -0.2225 C   0  0  0  0  0  0  0  0  0  0  0  0
   -9.0622   -0.3034    0.6673 C   0  0  0  0  0  0  0  0  0  0  0  0
   -7.4027    1.3670    0.1222 C   0  0  0  0  0  0  0  0  0  0  0  0
    5.8992    1.0447   -0.6760 C   0  0  0  0  0  0  0  0  0  0  0  0
    6.8852   -0.3061   -0.7019 C   0  0  1  0  0  0  0  0  0  0  0  0
    8.1345    0.5238   -0.9276 O   0  0  0  0  0  0  0  0  0  0  0  0
    7.0327   -0.2528    0.9448 C   0  0  0  0  0  0  0  0  0  0  0  0
    5.9257   -1.3719    1.3855 C   0  0  2  0  0  0  0  0  0  0  0  0
    6.4453   -2.4536    0.4482 O   0  0  0  0  0  0  0  0  0  0  0  0
  1  2  2  0
  2  3  1  0
  3  4  2  0
  4  5  1  0
  5  6  2  0
  6  7  1  0
  7  8  1  0
  8  9  1  0
  9 10  1  0
 10 11  1  6
 10 12  1  0
 12 13  1  6
 13 14  1  0
 15 14  1  6
 15 16  1  0
 16 17  1  1
 16 18  1  0
 18 19  2  0
 19 20  1  0
 20 21  1  6
 20 22  1  0
 22 23  1  0
 22 24  1  0
  3 25  1  0
 25 26  1  0
 26 27  1  6
 26 28  1  0
 28 29  1  0
 29 30  1  6
 29  2  1  0
 12  6  1  0
 15 10  1  0
M  END
>  <zinc_id>  (1) 
ZINC000004641374

>  <smiles>  (1) 
C=C1/C(=C\C=C2/CCC[C@@]3(C)[C@H]2CC[C@@H]3[C@H](C)/C=C/[C@H](C)C(C)C)C[C@@H](O)C[C@@H]1O

$$$$
