
     RDKit          3D

 18 18  0  0  0  0  0  0  0  0999 V2000
   -5.0863    1.1754    0.7038 N   0  0  0  0  0  0  0  0  0  0  0  0
   -3.8948    0.5425    0.4145 C   0  0  0  0  0  0  0  0  0  0  0  0
   -3.3921   -0.5184    1.1701 C   0  0  0  0  0  0  0  0  0  0  0  0
   -2.1957   -1.0566    0.7720 C   0  0  0  0  0  0  0  0  0  0  0  0
   -1.4983   -0.6290   -0.2797 N   0  0  0  0  0  0  0  0  0  0  0  0
   -0.2512   -1.1802   -0.7488 C   0  0  0  0  0  0  0  0  0  0  0  0
    0.8968   -0.3185   -0.0595 C   0  0  1  0  0  0  0  0  0  0  0  0
    0.5843   -0.7015    1.4724 C   0  0  0  0  0  0  0  0  0  0  0  0
    0.3801   -2.0600    1.5890 O   0  0  0  0  0  0  0  0  0  0  0  0
    2.0216   -1.2665   -0.2527 O   0  0  0  0  0  0  0  0  0  0  0  0
    3.1492   -0.7586    0.2603 C   0  0  0  0  0  0  0  0  0  0  0  0
    3.7884    0.7587   -0.3455 P   0  0  0  0  0  0  0  0  0  0  0  0
    3.2678    1.1896   -1.6911 O   0  0  0  0  0  0  0  0  0  0  0  0
    5.4910    0.6137   -0.3559 O   0  0  0  0  0  0  0  0  0  0  0  0
    3.3819    1.9522    0.7970 O   0  0  0  0  0  0  0  0  0  0  0  0
   -2.0423    0.4236   -0.9918 C   0  0  0  0  0  0  0  0  0  0  0  0
   -1.3971    0.8411   -1.9890 O   0  0  0  0  0  0  0  0  0  0  0  0
   -3.2034    0.9925   -0.6569 N   0  0  0  0  0  0  0  0  0  0  0  0
  1  2  1  0
  2  3  1  0
  3  4  2  0
  4  5  1  0
  5  6  1  0
  7  6  1  6
  7  8  1  0
  8  9  1  0
  7 10  1  0
 10 11  1  0
 11 12  1  0
 12 13  2  0
 12 14  1  0
 12 15  1  0
  5 16  1  0
 16 17  2  0
 16 18  1  0
 18  2  2  0
M  END
>  <zinc_id>  (1) 
ZINC000001530600

>  <smiles>  (1) 
Nc1ccn(C[C@@H](CO)OCP(=O)(O)O)c(=O)n1

$$$$
