
     RDKit          3D

 27 30  0  0  0  0  0  0  0  0999 V2000
    4.8370    1.7725    0.8268 C   0  0  0  0  0  0  0  0  0  0  0  0
    5.0790    1.5318    0.1306 C   0  0  0  0  0  0  0  0  0  0  0  0
    6.3061    0.5896    0.1175 C   0  0  0  0  0  0  0  0  0  0  0  0
    5.4307    2.5447   -0.9869 C   0  0  0  0  0  0  0  0  0  0  0  0
    4.0239    0.7238   -0.5003 N   0  0  0  0  0  0  0  0  0  0  0  0
    3.6348   -0.4506    0.1975 C   0  0  0  0  0  0  0  0  0  0  0  0
    4.1223   -0.7839    1.2399 O   0  0  0  0  0  0  0  0  0  0  0  0
    2.4937   -1.2332   -0.5828 C   0  0  1  0  0  0  0  0  0  0  0  0
    2.3281   -2.4526    0.4804 C   0  0  0  0  0  0  0  0  0  0  0  0
    0.8948   -2.5142    0.7718 C   0  0  0  0  0  0  0  0  0  0  0  0
    0.2744   -1.6050   -0.3990 C   0  0  1  0  0  0  0  0  0  0  0  0
   -0.9684   -1.0024    0.5416 C   0  0  2  0  0  0  0  0  0  0  0  0
   -1.9293   -2.2435    0.2754 C   0  0  0  0  0  0  0  0  0  0  0  0
   -3.2386   -1.7464    0.8568 C   0  0  0  0  0  0  0  0  0  0  0  0
   -3.8459   -0.7400   -0.2740 C   0  0  1  0  0  0  0  0  0  0  0  0
   -4.9457   -0.1596    0.7341 N   0  0  0  0  0  0  0  0  0  0  0  0
   -5.5853    0.9482    0.0954 C   0  0  0  0  0  0  0  0  0  0  0  0
   -6.8016    1.1617    0.1209 O   0  0  0  0  0  0  0  0  0  0  0  0
   -4.6644    1.8445   -0.6166 C   0  0  0  0  0  0  0  0  0  0  0  0
   -3.3756    1.6229   -0.6408 C   0  0  0  0  0  0  0  0  0  0  0  0
   -2.8154    0.4839    0.0411 C   0  0  1  0  0  0  0  0  0  0  0  0
   -2.6031    0.5879    1.4699 C   0  0  0  0  0  0  0  0  0  0  0  0
   -1.5521   -0.1035   -0.7477 C   0  0  1  0  0  0  0  0  0  0  0  0
   -0.5408    1.1254   -0.4709 C   0  0  0  0  0  0  0  0  0  0  0  0
    0.8462    0.6676   -0.9143 C   0  0  0  0  0  0  0  0  0  0  0  0
    1.2662   -0.3706    0.0129 C   0  0  2  0  0  0  0  0  0  0  0  0
    1.3290   -0.1990    1.4100 C   0  0  0  0  0  0  0  0  0  0  0  0
  1  2  1  0
  2  3  1  0
  2  4  1  0
  2  5  1  0
  5  6  1  0
  6  7  2  0
  8  6  1  1
  8  9  1  0
  9 10  1  0
 11 10  1  1
 11 12  1  0
 12 13  1  6
 13 14  1  0
 15 14  1  1
 15 16  1  0
 16 17  1  0
 17 18  2  0
 17 19  1  0
 19 20  2  0
 20 21  1  0
 21 22  1  1
 21 23  1  0
 23 24  1  1
 24 25  1  0
 25 26  1  0
 26 27  1  1
 26  8  1  0
 26 11  1  0
 23 12  1  0
 21 15  1  0
M  END
>  <zinc_id>  (1) 
ZINC000003782599

>  <smiles>  (1) 
CC(C)(C)NC(=O)[C@H]1CC[C@H]2[C@@H]3CC[C@H]4NC(=O)C=C[C@]4(C)[C@H]3CC[C@]12C

$$$$
