
     RDKit          3D

 25 26  0  0  0  0  0  0  0  0999 V2000
   -1.9035    4.5497   -0.9107 C   0  0  0  0  0  0  0  0  0  0  0  0
   -1.6435    3.4356   -1.1639 C   0  0  0  0  0  0  0  0  0  0  0  0
   -1.1409    2.5454   -0.0633 C   0  0  0  0  0  0  0  0  0  0  0  0
   -0.9737    3.0345    1.0459 O   0  0  0  0  0  0  0  0  0  0  0  0
   -0.8820    1.2881   -0.2386 O   0  0  0  0  0  0  0  0  0  0  0  0
   -0.4906    0.1114    0.2489 C   0  0  2  0  0  0  0  0  0  0  0  0
    0.8066   -0.0467    0.9374 C   0  0  0  0  0  0  0  0  0  0  0  0
    2.0118    0.2594    0.1839 C   0  0  0  0  0  0  0  0  0  0  0  0
    2.6381   -0.7403   -0.5874 C   0  0  0  0  0  0  0  0  0  0  0  0
    3.7740   -0.5243   -1.3084 C   0  0  0  0  0  0  0  0  0  0  0  0
    4.3724    0.7325   -1.3078 C   0  0  0  0  0  0  0  0  0  0  0  0
    3.8014    1.7517   -0.5690 C   0  0  0  0  0  0  0  0  0  0  0  0
    2.6651    1.4658    0.1282 C   0  0  0  0  0  0  0  0  0  0  0  0
   -0.5462   -0.8477   -0.9538 C   0  0  0  0  0  0  0  0  0  0  0  0
   -0.8873   -2.1548   -0.8158 C   0  0  0  0  0  0  0  0  0  0  0  0
   -0.9470   -2.9919   -1.9429 C   0  0  0  0  0  0  0  0  0  0  0  0
   -0.6623   -2.4938   -3.1795 C   0  0  0  0  0  0  0  0  0  0  0  0
   -0.3187   -1.1891   -3.3359 C   0  0  0  0  0  0  0  0  0  0  0  0
   -0.2628   -0.3604   -2.1956 C   0  0  0  0  0  0  0  0  0  0  0  0
   -1.6781   -0.4552    1.1790 C   0  0  2  0  0  0  0  0  0  0  0  0
   -1.6741    0.7055    2.2840 C   0  0  0  0  0  0  0  0  0  0  0  0
   -0.8101   -1.5161    2.0313 C   0  0  0  0  0  0  0  0  0  0  0  0
   -1.7602   -2.1375    2.9317 N   0  0  0  0  0  0  0  0  0  0  0  0
   -1.1123   -3.1812    3.7385 C   0  0  0  0  0  0  0  0  0  0  0  0
   -2.3761   -1.2402    3.8637 C   0  0  0  0  0  0  0  0  0  0  0  0
  1  2  1  0
  2  3  1  0
  3  4  2  0
  3  5  1  0
  5  6  1  0
  6  7  1  1
  7  8  1  0
  8  9  2  0
  9 10  1  0
 10 11  2  0
 11 12  1  0
 12 13  2  0
  6 14  1  0
 14 15  2  0
 15 16  1  0
 16 17  2  0
 17 18  1  0
 18 19  2  0
  6 20  1  0
 20 21  1  1
 20 22  1  0
 22 23  1  0
 23 24  1  0
 23 25  1  0
 13  8  1  0
 19 14  1  0
M  END
>  <zinc_id>  (1) 
ZINC000001530769

>  <smiles>  (1) 
CCC(=O)O[C@](Cc1ccccc1)(c1ccccc1)[C@H](C)CN(C)C

$$$$
