
     RDKit          3D

 33 36  0  0  0  0  0  0  0  0999 V2000
   -6.8853    0.0903    2.5097 C   0  0  0  0  0  0  0  0  0  0  0  0
   -7.5954   -0.1871    1.2275 C   0  0  0  0  0  0  0  0  0  0  0  0
   -8.8536   -0.7400    1.2076 C   0  0  0  0  0  0  0  0  0  0  0  0
   -9.5038   -0.9936    0.0194 C   0  0  0  0  0  0  0  0  0  0  0  0
   -8.8497   -0.6742   -1.1505 C   0  0  0  0  0  0  0  0  0  0  0  0
   -7.5957   -0.1233   -1.1239 C   0  0  0  0  0  0  0  0  0  0  0  0
   -6.7689    0.2823   -2.6351 Cl  0  0  0  0  0  0  0  0  0  0  0  0
   -6.9206    0.1418    0.0542 C   0  0  0  0  0  0  0  0  0  0  0  0
   -5.6199    0.7137    0.0613 N   0  0  0  0  0  0  0  0  0  0  0  0
   -4.4504   -0.0826    0.0291 C   0  0  0  0  0  0  0  0  0  0  0  0
   -4.5856   -1.3273   -0.0067 O   0  0  0  0  0  0  0  0  0  0  0  0
   -3.1036    0.5206    0.0370 C   0  0  0  0  0  0  0  0  0  0  0  0
   -2.7609    1.8421    0.0764 C   0  0  0  0  0  0  0  0  0  0  0  0
   -1.5149    2.1599    0.0781 N   0  0  0  0  0  0  0  0  0  0  0  0
   -0.5975    1.2004    0.0416 C   0  0  0  0  0  0  0  0  0  0  0  0
    0.8091    1.4095    0.0399 N   0  0  0  0  0  0  0  0  0  0  0  0
    1.7012    0.2817   -0.0072 C   0  0  0  0  0  0  0  0  0  0  0  0
    3.0666    0.4689   -0.0032 C   0  0  0  0  0  0  0  0  0  0  0  0
    3.9460   -0.5893   -0.0478 C   0  0  0  0  0  0  0  0  0  0  0  0
    5.3318   -0.3001   -0.0397 N   0  0  0  0  0  0  0  0  0  0  0  0
    5.8423    1.0493    0.0085 C   0  0  0  0  0  0  0  0  0  0  0  0
    7.0338    1.0528    0.9421 C   0  0  0  0  0  0  0  0  0  0  0  0
    8.0887    0.2076    0.4194 N   0  0  0  0  0  0  0  0  0  0  0  0
    8.9842    1.0826   -0.3504 C   0  0  0  0  0  0  0  0  0  0  0  0
    9.6636    1.9896    0.6548 C   0  0  0  0  0  0  0  0  0  0  0  0
   10.3662    1.1710    1.5390 O   0  0  0  0  0  0  0  0  0  0  0  0
    7.6120   -0.7931   -0.5094 C   0  0  0  0  0  0  0  0  0  0  0  0
    6.2847   -1.3855   -0.0810 C   0  0  0  0  0  0  0  0  0  0  0  0
    3.4473   -1.8246   -0.0963 N   0  0  0  0  0  0  0  0  0  0  0  0
    2.0972   -2.0267   -0.1013 C   0  0  0  0  0  0  0  0  0  0  0  0
    1.6484   -3.4348   -0.1568 C   0  0  0  0  0  0  0  0  0  0  0  0
    1.2435   -0.9731   -0.0569 N   0  0  0  0  0  0  0  0  0  0  0  0
   -1.5607   -0.2084    0.0035 S   0  0  0  0  0  0  0  0  0  0  0  0
  1  2  1  0
  2  3  2  0
  3  4  1  0
  4  5  2  0
  5  6  1  0
  6  7  1  0
  6  8  2  0
  8  9  1  0
  9 10  1  0
 10 11  2  0
 10 12  1  0
 12 13  2  0
 13 14  1  0
 14 15  2  0
 15 16  1  0
 16 17  1  0
 17 18  2  0
 18 19  1  0
 19 20  1  0
 20 21  1  0
 21 22  1  0
 22 23  1  0
 23 24  1  0
 24 25  1  0
 25 26  1  0
 23 27  1  0
 27 28  1  0
 19 29  2  0
 29 30  1  0
 30 31  1  0
 30 32  2  0
 15 33  1  0
  8  2  1  0
 33 12  1  0
 32 17  1  0
 28 20  1  0
M  END
>  <zinc_id>  (1) 
ZINC000003986735

>  <smiles>  (1) 
Cc1nc(Nc2ncc(C(=O)Nc3c(C)cccc3Cl)s2)cc(N2CCN(CCO)CC2)n1

$$$$
