
     RDKit          3D

 33 36  0  0  0  0  0  0  0  0999 V2000
    4.4799    2.9694   -2.1586 C   0  0  0  0  0  0  0  0  0  0  0  0
    4.2521    1.9815   -2.3149 C   0  0  0  0  0  0  0  0  0  0  0  0
    3.5411    1.2699   -1.2021 C   0  0  0  0  0  0  0  0  0  0  0  0
    3.3198    2.0223   -0.2318 O   0  0  0  0  0  0  0  0  0  0  0  0
    3.2114   -0.0659   -1.3291 O   0  0  0  0  0  0  0  0  0  0  0  0
    2.5878   -0.6516   -0.2592 C   0  0  2  0  0  0  0  0  0  0  0  0
    3.4507   -0.6702    0.8927 C   0  0  0  0  0  0  0  0  0  0  0  0
    3.1405   -1.1570    2.0054 O   0  0  0  0  0  0  0  0  0  0  0  0
    4.8313   -0.1440    0.9956 C   0  0  0  0  0  0  0  0  0  0  0  0
    6.1430   -1.1163    0.4523 Cl  0  0  0  0  0  0  0  0  0  0  0  0
    2.1211   -2.1651   -0.5979 C   0  0  1  0  0  0  0  0  0  0  0  0
    3.2555   -2.9884    0.1988 C   0  0  0  0  0  0  0  0  0  0  0  0
    1.0931   -2.1358    0.7158 C   0  0  0  0  0  0  0  0  0  0  0  0
    0.1962   -1.2675   -0.2817 C   0  0  1  0  0  0  0  0  0  0  0  0
   -0.8700   -0.4884    0.7488 C   0  0  2  0  0  0  0  0  0  0  0  0
   -1.9442   -1.6902    0.8842 C   0  0  0  0  0  0  0  0  0  0  0  0
   -2.8455   -0.7932    1.9733 C   0  0  2  0  0  0  0  0  0  0  0  0
   -3.7793   -1.9244    2.2247 F   0  0  0  0  0  0  0  0  0  0  0  0
   -3.6816   -0.1370    0.7756 C   0  0  0  0  0  0  0  0  0  0  0  0
   -4.8695   -0.4590    0.5261 C   0  0  0  0  0  0  0  0  0  0  0  0
   -5.6066    0.1515   -0.5721 C   0  0  0  0  0  0  0  0  0  0  0  0
   -6.8014   -0.1985   -0.7943 O   0  0  0  0  0  0  0  0  0  0  0  0
   -4.8972    1.1402   -1.3490 C   0  0  0  0  0  0  0  0  0  0  0  0
   -3.6495    1.4292   -1.0193 C   0  0  0  0  0  0  0  0  0  0  0  0
   -2.8898    0.8518    0.0670 C   0  0  1  0  0  0  0  0  0  0  0  0
   -2.6229    1.9543    1.1256 C   0  0  0  0  0  0  0  0  0  0  0  0
   -1.6156    0.2612   -0.4398 C   0  0  2  0  0  0  0  0  0  0  0  0
   -1.8469   -0.5601   -1.4731 F   0  0  0  0  0  0  0  0  0  0  0  0
   -0.6626    1.4633   -0.9361 C   0  0  1  0  0  0  0  0  0  0  0  0
   -0.2973    2.0649    0.3847 O   0  0  0  0  0  0  0  0  0  0  0  0
    0.7426    0.7151   -1.2085 C   0  0  0  0  0  0  0  0  0  0  0  0
    1.2401   -0.0432   -0.1325 C   0  0  2  0  0  0  0  0  0  0  0  0
    1.2739    0.3813    1.2947 C   0  0  0  0  0  0  0  0  0  0  0  0
  1  2  1  0
  2  3  1  0
  3  4  2  0
  3  5  1  0
  6  5  1  6
  6  7  1  0
  7  8  2  0
  7  9  1  0
  9 10  1  0
  6 11  1  0
 11 12  1  1
 11 13  1  0
 14 13  1  1
 14 15  1  0
 15 16  1  6
 16 17  1  0
 17 18  1  1
 17 19  1  0
 19 20  2  0
 20 21  1  0
 21 22  2  0
 21 23  1  0
 23 24  2  0
 24 25  1  0
 25 26  1  1
 25 27  1  0
 27 28  1  6
 27 29  1  0
 29 30  1  1
 29 31  1  0
 31 32  1  0
 32 33  1  1
 32  6  1  0
 32 14  1  0
 27 15  1  0
 25 19  1  0
M  END
>  <zinc_id>  (1) 
ZINC000003920028

>  <smiles>  (1) 
CCC(=O)O[C@]1(C(=O)CCl)[C@@H](C)C[C@H]2[C@@H]3C[C@H](F)C4=CC(=O)C=C[C@]4(C)[C@@]3(F)[C@@H](O)C[C@@]21C

$$$$
