
     RDKit          3D

 15 14  0  0  0  0  0  0  0  0999 V2000
   -3.3498   -3.0020    0.2767 O   0  0  0  0  0  0  0  0  0  0  0  0
   -2.8826   -2.0186   -0.1640 N   0  0  0  0  0  0  0  0  0  0  0  0
   -3.8883   -0.9344   -0.2846 O   0  0  0  0  0  0  0  0  0  0  0  0
   -1.6456   -1.5311   -0.3805 O   0  0  0  0  0  0  0  0  0  0  0  0
   -1.2764   -0.5665    0.6917 C   0  0  0  0  0  0  0  0  0  0  0  0
   -0.2380    0.3382    0.1115 C   0  0  0  0  0  0  0  0  0  0  0  0
    1.0055   -0.0174   -0.4867 C   0  0  0  0  0  0  0  0  0  0  0  0
    1.9817   -0.5011    0.3209 O   0  0  0  0  0  0  0  0  0  0  0  0
    3.2646   -0.7384   -0.2526 N   0  0  0  0  0  0  0  0  0  0  0  0
    3.5744   -1.6460   -0.9635 O   0  0  0  0  0  0  0  0  0  0  0  0
    4.2342    0.1853    0.2582 O   0  0  0  0  0  0  0  0  0  0  0  0
   -0.0718    1.4791    1.1470 O   0  0  0  0  0  0  0  0  0  0  0  0
   -0.1606    2.6346    0.2887 N   0  0  0  0  0  0  0  0  0  0  0  0
   -1.2969    3.2672    0.4804 O   0  0  0  0  0  0  0  0  0  0  0  0
    0.7496    3.0512   -0.5230 O   0  0  0  0  0  0  0  0  0  0  0  0
  1  2  2  0
  2  3  1  0
  2  4  1  0
  4  5  1  0
  5  6  1  0
  6  7  1  0
  7  8  1  0
  8  9  1  0
  9 10  2  0
  9 11  1  0
  6 12  1  0
 12 13  1  0
 13 14  2  0
 13 15  1  0
M  CHG  6   2   1   3  -1   9   1  11  -1  13   1  15  -1
M  END
>  <zinc_id>  (1) 
ZINC000008214625

>  <smiles>  (1) 
O=[N+]([O-])OCC(CO[N+](=O)[O-])O[N+](=O)[O-]

$$$$
