
     RDKit          3D

 41 44  0  0  0  0  0  0  0  0999 V2000
   -0.9762   -2.6002   -0.5398 C   0  0  0  0  0  0  0  0  0  0  0  0
   -1.1889   -1.5293    0.7139 C   0  0  1  0  0  0  0  0  0  0  0  0
   -0.3428   -0.4904    0.1049 O   0  0  0  0  0  0  0  0  0  0  0  0
   -0.5411    0.5497    1.1739 C   0  0  1  0  0  0  0  0  0  0  0  0
   -0.0504   -0.3761    2.3213 O   0  0  0  0  0  0  0  0  0  0  0  0
    1.0181   -1.0314    2.0517 C   0  0  0  0  0  0  0  0  0  0  0  0
    2.1232   -0.7234    1.2431 C   0  0  0  0  0  0  0  0  0  0  0  0
    1.8268    0.4157    0.3354 N   0  0  0  0  0  0  0  0  0  0  0  0
    3.0599    1.1782    0.4705 C   0  0  0  0  0  0  0  0  0  0  0  0
    4.2854    0.4381    0.1939 C   0  0  0  0  0  0  0  0  0  0  0  0
    4.6024   -0.8513    0.2793 N   0  0  0  0  0  0  0  0  0  0  0  0
    5.8323   -1.0464   -0.0762 N   0  0  0  0  0  0  0  0  0  0  0  0
    6.6080   -2.6272   -0.0929 P   0  0  0  0  0  0  0  0  0  0  0  0
    7.8384   -2.6186   -0.9284 O   0  0  0  0  0  0  0  0  0  0  0  0
    5.4823   -3.7515   -0.6852 O   0  0  0  0  0  0  0  0  0  0  0  0
    6.9213   -3.0122    1.5214 O   0  0  0  0  0  0  0  0  0  0  0  0
    6.3411    0.1601   -0.4045 C   0  0  0  0  0  0  0  0  0  0  0  0
    7.5417    0.3582   -0.7991 O   0  0  0  0  0  0  0  0  0  0  0  0
    5.3983    1.0664   -0.2406 N   0  0  0  0  0  0  0  0  0  0  0  0
    0.9348    1.3495    1.1938 C   0  0  1  0  0  0  0  0  0  0  0  0
    0.6454    2.4481    0.1899 C   0  0  0  0  0  0  0  0  0  0  0  0
   -0.3186    3.3637    0.5227 C   0  0  0  0  0  0  0  0  0  0  0  0
   -0.5981    4.4785   -0.3129 C   0  0  0  0  0  0  0  0  0  0  0  0
    0.0995    4.6555   -1.4810 C   0  0  0  0  0  0  0  0  0  0  0  0
   -0.1174    5.7231   -2.3030 F   0  0  0  0  0  0  0  0  0  0  0  0
    1.0706    3.7441   -1.8336 C   0  0  0  0  0  0  0  0  0  0  0  0
    1.3015    2.6779   -0.9766 C   0  0  0  0  0  0  0  0  0  0  0  0
   -2.6204   -1.1442    0.3361 C   0  0  0  0  0  0  0  0  0  0  0  0
   -3.4867   -2.2194    0.1707 C   0  0  0  0  0  0  0  0  0  0  0  0
   -4.8332   -2.0651   -0.0942 C   0  0  0  0  0  0  0  0  0  0  0  0
   -5.7715   -3.2309   -0.2426 C   0  0  0  0  0  0  0  0  0  0  0  0
   -5.6463   -3.8777   -1.4221 F   0  0  0  0  0  0  0  0  0  0  0  0
   -5.5387   -4.1241    0.8248 F   0  0  0  0  0  0  0  0  0  0  0  0
   -7.0767   -2.7956   -0.0661 F   0  0  0  0  0  0  0  0  0  0  0  0
   -5.2710   -0.7647   -0.1877 C   0  0  0  0  0  0  0  0  0  0  0  0
   -4.4641    0.3181   -0.0388 C   0  0  0  0  0  0  0  0  0  0  0  0
   -5.0662    1.6645   -0.1703 C   0  0  0  0  0  0  0  0  0  0  0  0
   -6.0996    1.6072   -1.0823 F   0  0  0  0  0  0  0  0  0  0  0  0
   -4.1712    2.6095   -0.5546 F   0  0  0  0  0  0  0  0  0  0  0  0
   -5.6365    1.9664    1.0624 F   0  0  0  0  0  0  0  0  0  0  0  0
   -3.1150    0.1072    0.2277 C   0  0  0  0  0  0  0  0  0  0  0  0
  2  1  1  6
  2  3  1  0
  4  3  1  6
  4  5  1  0
  5  6  1  0
  6  7  1  0
  7  8  1  0
  8  9  1  0
  9 10  1  0
 10 11  2  0
 11 12  1  0
 12 13  1  0
 13 14  2  0
 13 15  1  0
 13 16  1  0
 12 17  1  0
 17 18  2  0
 17 19  1  0
  8 20  1  0
 20 21  1  6
 21 22  2  0
 22 23  1  0
 23 24  2  0
 24 25  1  0
 24 26  1  0
 26 27  2  0
  2 28  1  0
 28 29  2  0
 29 30  1  0
 30 31  1  0
 31 32  1  0
 31 33  1  0
 31 34  1  0
 30 35  2  0
 35 36  1  0
 36 37  1  0
 37 38  1  0
 37 39  1  0
 37 40  1  0
 36 41  2  0
 20  4  1  0
 27 21  1  0
 41 28  1  0
 19 10  1  0
M  END
>  <zinc_id>  (1) 
ZINC000003939013

>  <smiles>  (1) 
C[C@@H](O[C@H]1OCCN(Cc2nn(P(=O)(O)O)c(=O)[nH]2)[C@H]1c1ccc(F)cc1)c1cc(C(F)(F)F)cc(C(F)(F)F)c1

$$$$
