
     RDKit          3D

 14 15  0  0  0  0  0  0  0  0999 V2000
    3.1573    1.7371   -0.2460 C   0  0  0  0  0  0  0  0  0  0  0  0
    3.8435    0.4093   -0.0640 C   0  0  0  0  0  0  0  0  0  0  0  0
    2.8386   -0.6057    0.3956 C   0  0  0  0  0  0  0  0  0  0  0  0
    1.7719   -0.7982   -0.5313 N   0  0  0  0  0  0  0  0  0  0  0  0
    0.9971   -2.0008    0.0600 C   0  0  1  0  0  0  0  0  0  0  0  0
    0.4957   -1.3881    1.4513 C   0  0  0  0  0  0  0  0  0  0  0  0
    0.1994    0.0132    1.4572 C   0  0  0  0  0  0  0  0  0  0  0  0
   -0.9712    0.2605    0.5378 C   0  0  0  0  0  0  0  0  0  0  0  0
   -1.8256    1.2522    0.5896 N   0  0  0  0  0  0  0  0  0  0  0  0
   -2.7789    1.3396   -0.3121 C   0  0  0  0  0  0  0  0  0  0  0  0
   -3.8158    2.3301   -0.4633 N   0  0  0  0  0  0  0  0  0  0  0  0
   -2.4622   -0.0485   -1.2864 S   0  0  0  0  0  0  0  0  0  0  0  0
   -1.0958   -0.6530   -0.4431 C   0  0  0  0  0  0  0  0  0  0  0  0
   -0.3539   -1.8477   -0.7727 C   0  0  0  0  0  0  0  0  0  0  0  0
  1  2  1  0
  2  3  1  0
  3  4  1  0
  5  4  1  6
  5  6  1  0
  6  7  1  0
  7  8  1  0
  8  9  1  0
  9 10  2  0
 10 11  1  0
 10 12  1  0
 12 13  1  0
 13 14  1  0
 14  5  1  0
 13  8  2  0
M  END
>  <zinc_id>  (1) 
ZINC000003781664

>  <smiles>  (1) 
CCCN[C@H]1CCc2nc(N)sc2C1

$$$$
