
     RDKit          3D

 11 11  0  0  0  0  0  0  0  0999 V2000
    3.8558    0.0120    0.3221 N   0  0  0  0  0  0  0  0  0  0  0  0
    2.4309    0.0020    0.1967 C   0  0  0  0  0  0  0  0  0  0  0  0
    1.8010    0.4785   -0.9361 C   0  0  0  0  0  0  0  0  0  0  0  0
    0.4234    0.4557   -1.0278 C   0  0  0  0  0  0  0  0  0  0  0  0
   -0.3798   -0.0322   -0.0181 C   0  0  0  0  0  0  0  0  0  0  0  0
   -2.1104   -0.0221   -0.2204 S   0  0  0  0  0  0  0  0  0  0  0  0
   -2.7606    1.4649    0.3736 N   0  0  0  0  0  0  0  0  0  0  0  0
   -2.7223   -1.1499    0.5732 O   0  0  0  0  0  0  0  0  0  0  0  0
   -2.4011   -0.2163   -1.6800 O   0  0  0  0  0  0  0  0  0  0  0  0
    0.2444   -0.5082    1.1128 C   0  0  0  0  0  0  0  0  0  0  0  0
    1.6187   -0.4843    1.2017 C   0  0  0  0  0  0  0  0  0  0  0  0
  1  2  1  0
  2  3  2  0
  3  4  1  0
  4  5  2  0
  5  6  1  0
  6  7  1  0
  6  8  2  0
  6  9  2  0
  5 10  1  0
 10 11  2  0
 11  2  1  0
M  END
>  <zinc_id>  (1) 
ZINC000000002101

>  <smiles>  (1) 
Nc1ccc(S(N)(=O)=O)cc1

$$$$
