
     RDKit          3D

 29 32  0  0  0  0  0  0  0  0999 V2000
    2.7483   -0.9166   -3.7766 O   0  0  0  0  0  0  0  0  0  0  0  0
    2.9220   -1.2258   -2.3031 C   0  0  2  0  0  0  0  0  0  0  0  0
    1.6905   -2.2540   -2.2517 C   0  0  0  0  0  0  0  0  0  0  0  0
    0.4733   -1.7782   -2.6082 N   0  0  0  0  0  0  0  0  0  0  0  0
   -0.3580   -0.9178   -1.9825 C   0  0  0  0  0  0  0  0  0  0  0  0
   -1.0435   -1.4943   -0.6215 C   0  0  2  0  0  0  0  0  0  0  0  0
   -1.7340   -2.6624   -1.3066 O   0  0  0  0  0  0  0  0  0  0  0  0
   -2.3482   -0.3973   -0.7983 C   0  0  2  0  0  0  0  0  0  0  0  0
   -1.8385    0.5434    0.4015 C   0  0  0  0  0  0  0  0  0  0  0  0
   -2.4668    0.3295    1.6831 C   0  0  0  0  0  0  0  0  0  0  0  0
   -3.9415    0.3713    1.5640 C   0  0  0  0  0  0  0  0  0  0  0  0
   -4.8131    1.1331    2.2829 C   0  0  0  0  0  0  0  0  0  0  0  0
   -6.1762    1.0148    2.0184 C   0  0  0  0  0  0  0  0  0  0  0  0
   -7.1013    1.7409    2.6912 F   0  0  0  0  0  0  0  0  0  0  0  0
   -6.6442    0.1375    1.0397 C   0  0  0  0  0  0  0  0  0  0  0  0
   -5.7559   -0.6335    0.3129 C   0  0  0  0  0  0  0  0  0  0  0  0
   -4.4089   -0.4970    0.5949 C   0  0  0  0  0  0  0  0  0  0  0  0
   -3.3862   -1.1862   -0.0322 O   0  0  0  0  0  0  0  0  0  0  0  0
    2.0527    0.0946   -1.7404 C   0  0  2  0  0  0  0  0  0  0  0  0
    3.2066    1.1821   -2.0062 C   0  0  0  0  0  0  0  0  0  0  0  0
    3.1588    2.1799   -0.8720 C   0  0  0  0  0  0  0  0  0  0  0  0
    3.8912    1.4217    0.1927 C   0  0  0  0  0  0  0  0  0  0  0  0
    4.9699    1.9034    0.8554 C   0  0  0  0  0  0  0  0  0  0  0  0
    5.5810    1.1244    1.8157 C   0  0  0  0  0  0  0  0  0  0  0  0
    6.6457    1.5320    2.5057 F   0  0  0  0  0  0  0  0  0  0  0  0
    5.0541   -0.1468    2.0685 C   0  0  0  0  0  0  0  0  0  0  0  0
    3.9651   -0.6012    1.3813 C   0  0  0  0  0  0  0  0  0  0  0  0
    3.3726    0.1895    0.4308 C   0  0  0  0  0  0  0  0  0  0  0  0
    2.2846   -0.1872   -0.2974 O   0  0  0  0  0  0  0  0  0  0  0  0
  2  1  1  6
  2  3  1  0
  3  4  1  0
  4  5  1  0
  5  6  1  0
  6  7  1  6
  6  8  1  0
  8  9  1  1
  9 10  1  0
 10 11  1  0
 11 12  2  0
 12 13  1  0
 13 14  1  0
 13 15  2  0
 15 16  1  0
 16 17  2  0
 17 18  1  0
  2 19  1  0
 19 20  1  6
 20 21  1  0
 21 22  1  0
 22 23  2  0
 23 24  1  0
 24 25  1  0
 24 26  2  0
 26 27  1  0
 27 28  2  0
 28 29  1  0
 18  8  1  0
 29 19  1  0
 17 11  1  0
 28 22  1  0
M  END
>  <zinc_id>  (1) 
ZINC000004213946

>  <smiles>  (1) 
O[C@@H](CNC[C@@H](O)[C@@H]1CCc2cc(F)ccc2O1)[C@@H]1CCc2cc(F)ccc2O1

$$$$
