
     RDKit          3D

 20 19  0  0  0  0  0  0  0  0999 V2000
    8.6869    0.6684   -1.5030 C   0  0  0  0  0  0  0  0  0  0  0  0
    7.5206   -0.2167   -1.8080 C   0  0  0  0  0  0  0  0  0  0  0  0
    6.7263   -0.5351   -0.5616 C   0  0  0  0  0  0  0  0  0  0  0  0
    5.5599   -1.4340   -0.9370 C   0  0  0  0  0  0  0  0  0  0  0  0
    4.8048   -1.7169    0.3496 C   0  0  0  0  0  0  0  0  0  0  0  0
    4.3358   -0.4076    0.9093 C   0  0  0  0  0  0  0  0  0  0  0  0
    3.4190    0.3388   -0.0312 C   0  0  0  0  0  0  0  0  0  0  0  0
    2.1779   -0.4853   -0.3391 C   0  0  0  0  0  0  0  0  0  0  0  0
    1.4754   -0.7455    0.9434 C   0  0  0  0  0  0  0  0  0  0  0  0
    0.2353   -0.3075    1.0827 C   0  0  0  0  0  0  0  0  0  0  0  0
   -0.3855    0.4214   -0.0542 C   0  0  0  0  0  0  0  0  0  0  0  0
   -1.6234   -0.3910   -0.4530 C   0  0  0  0  0  0  0  0  0  0  0  0
   -2.5823   -0.4863    0.7138 C   0  0  0  0  0  0  0  0  0  0  0  0
   -3.0451    0.8848    1.1668 C   0  0  0  0  0  0  0  0  0  0  0  0
   -3.7576    1.6236    0.0557 C   0  0  0  0  0  0  0  0  0  0  0  0
   -4.9789    0.8743   -0.4225 C   0  0  0  0  0  0  0  0  0  0  0  0
   -5.9810    0.6759    0.7075 C   0  0  0  0  0  0  0  0  0  0  0  0
   -7.1456   -0.0595    0.1746 C   0  0  0  0  0  0  0  0  0  0  0  0
   -7.2352   -0.4313   -1.0193 O   0  0  0  0  0  0  0  0  0  0  0  0
   -8.2074   -0.3645    1.0255 O   0  0  0  0  0  0  0  0  0  0  0  0
  1  2  1  0
  2  3  1  0
  3  4  1  0
  4  5  1  0
  5  6  1  0
  6  7  1  0
  7  8  1  0
  8  9  1  0
  9 10  2  0
 10 11  1  0
 11 12  1  0
 12 13  1  0
 13 14  1  0
 14 15  1  0
 15 16  1  0
 16 17  1  0
 17 18  1  0
 18 19  2  0
 18 20  1  0
M  END
>  <zinc_id>  (1) 
ZINC000006845860

>  <smiles>  (1) 
CCCCCCCC/C=C\CCCCCCCC(=O)O

$$$$
