
     RDKit          3D

 11 12  0  0  0  0  0  0  0  0999 V2000
   -1.6711    1.3432    0.4111 C   0  0  0  0  0  0  0  0  0  0  0  0
   -0.3868    0.8907    0.2721 C   0  0  0  0  0  0  0  0  0  0  0  0
    0.6612    1.9558    0.0898 C   0  0  0  0  0  0  0  0  0  0  0  0
    0.0189    0.0640    1.6010 C   0  0  1  0  0  0  0  0  0  0  0  0
   -1.1687   -1.0181    1.3608 C   0  0  0  0  0  0  0  0  0  0  0  0
   -1.0353   -1.3289   -0.0911 C   0  0  0  0  0  0  0  0  0  0  0  0
   -0.2562   -0.2205   -0.7330 C   0  0  1  0  0  0  0  0  0  0  0  0
   -0.5814    0.1072   -2.1072 C   0  0  0  0  0  0  0  0  0  0  0  0
    1.1890   -0.5069   -0.4580 C   0  0  0  0  0  0  0  0  0  0  0  0
    2.0580   -0.4261   -1.2890 O   0  0  0  0  0  0  0  0  0  0  0  0
    1.1723   -0.8603    0.9436 C   0  0  0  0  0  0  0  0  0  0  0  0
  1  2  1  0
  2  3  1  0
  2  4  1  0
  4  5  1  6
  5  6  1  0
  6  7  1  0
  7  8  1  6
  7  9  1  0
  9 10  2  0
  9 11  1  0
  7  2  1  0
 11  4  1  0
M  END
>  <zinc_id>  (1) 
ZINC000000967521

>  <smiles>  (1) 
CC1(C)[C@H]2CC[C@]1(C)C(=O)C2

$$$$
