
     RDKit          3D

 28 30  0  0  0  0  0  0  0  0999 V2000
    2.2459   -2.2659    2.1887 C   0  0  0  0  0  0  0  0  0  0  0  0
    1.6193   -1.7632    2.0306 O   0  0  0  0  0  0  0  0  0  0  0  0
    1.0153   -1.0197    1.0349 C   0  0  1  0  0  0  0  0  0  0  0  0
    1.8572   -0.0547    0.4875 N   0  0  0  0  0  0  0  0  0  0  0  0
    2.9599   -0.3237   -0.3657 C   0  0  0  0  0  0  0  0  0  0  0  0
    3.1995   -1.5173   -0.6175 O   0  0  0  0  0  0  0  0  0  0  0  0
    3.7039    0.8475   -0.8527 C   0  0  0  0  0  0  0  0  0  0  0  0
    4.9300    1.1733   -0.0626 C   0  0  0  0  0  0  0  0  0  0  0  0
    6.1915    0.6722   -0.0407 C   0  0  0  0  0  0  0  0  0  0  0  0
    7.0785    1.2162    0.7912 C   0  0  0  0  0  0  0  0  0  0  0  0
    6.6774    2.2524    1.5818 C   0  0  0  0  0  0  0  0  0  0  0  0
    5.0503    2.4425    1.1385 S   0  0  0  0  0  0  0  0  0  0  0  0
    0.1944   -1.8628    0.1433 C   0  0  0  0  0  0  0  0  0  0  0  0
    0.4521   -2.8347   -0.5943 O   0  0  0  0  0  0  0  0  0  0  0  0
   -1.0186   -1.1689    0.4203 N   0  0  0  0  0  0  0  0  0  0  0  0
   -2.3682   -0.7820    0.2430 C   0  0  0  0  0  0  0  0  0  0  0  0
   -3.2291   -1.8284   -0.3556 C   0  0  0  0  0  0  0  0  0  0  0  0
   -4.4483   -1.5902   -0.5601 O   0  0  0  0  0  0  0  0  0  0  0  0
   -2.7727   -3.0765   -0.7125 O   0  0  0  0  0  0  0  0  0  0  0  0
   -2.8861    0.3672    0.5414 C   0  0  0  0  0  0  0  0  0  0  0  0
   -4.3503    0.5769    0.2738 C   0  0  0  0  0  0  0  0  0  0  0  0
   -4.5382    1.6601   -0.6339 O   0  0  0  0  0  0  0  0  0  0  0  0
   -5.7782    2.0552   -1.0390 C   0  0  0  0  0  0  0  0  0  0  0  0
   -6.0809    3.1157   -1.9335 N   0  0  0  0  0  0  0  0  0  0  0  0
   -6.7568    1.3865   -0.5523 O   0  0  0  0  0  0  0  0  0  0  0  0
   -2.2033    1.5448    1.1098 C   0  0  0  0  0  0  0  0  0  0  0  0
   -0.4052    1.2620    0.8463 S   0  0  0  0  0  0  0  0  0  0  0  0
   -0.3393   -0.4844    1.6279 C   0  0  2  0  0  0  0  0  0  0  0  0
  1  2  1  0
  2  3  1  0
  3  4  1  6
  4  5  1  0
  5  6  2  0
  5  7  1  0
  7  8  1  0
  8  9  2  0
  9 10  1  0
 10 11  2  0
 11 12  1  0
  3 13  1  0
 13 14  2  0
 13 15  1  0
 15 16  1  0
 16 17  1  0
 17 18  2  0
 17 19  1  0
 16 20  2  0
 20 21  1  0
 21 22  1  0
 22 23  1  0
 23 24  1  0
 23 25  2  0
 20 26  1  0
 26 27  1  0
 28 27  1  6
 28  3  1  0
 12  8  1  0
 28 15  1  0
M  END
>  <zinc_id>  (1) 
ZINC000003830449

>  <smiles>  (1) 
CO[C@@]1(NC(=O)Cc2cccs2)C(=O)N2C(C(=O)O)=C(COC(N)=O)CS[C@@H]21

$$$$
