
     RDKit          3D

  6  5  0  0  0  0  0  0  0  0999 V2000
   -1.1911   -0.8814   -0.0971 O   0  0  0  0  0  0  0  0  0  0  0  0
   -1.2135   -0.3722    0.2946 C   0  0  0  0  0  0  0  0  0  0  0  0
   -0.2147    0.7597    0.7391 C   0  0  2  0  0  0  0  0  0  0  0  0
    0.1008    1.4898   -0.9731 S   0  0  0  0  0  0  0  0  0  0  0  0
    1.0803   -0.1296    0.8197 C   0  0  0  0  0  0  0  0  0  0  0  0
    1.4382   -0.8663   -0.7831 S   0  0  0  0  0  0  0  0  0  0  0  0
  1  2  1  0
  3  2  1  0
  3  4  1  6
  3  5  1  0
  5  6  1  0
M  END
>  <zinc_id>  (1) 
ZINC000000901552

>  <smiles>  (1) 
OC[C@H](S)CS

$$$$
