
     RDKit          3D

 21 23  0  0  0  0  0  0  0  0999 V2000
    3.6916   -0.8701   -0.9793 C   0  0  0  0  0  0  0  0  0  0  0  0
    2.4391   -0.9545   -0.3335 N   0  0  0  0  0  0  0  0  0  0  0  0
    1.8436    0.3325   -0.0444 C   0  0  0  0  0  0  0  0  0  0  0  0
    2.6696    1.3959   -0.0624 C   0  0  0  0  0  0  0  0  0  0  0  0
    2.1745    2.6766    0.2199 C   0  0  0  0  0  0  0  0  0  0  0  0
    0.8410    2.8316    0.5139 C   0  0  0  0  0  0  0  0  0  0  0  0
    0.2399    4.4565    0.8669 Cl  0  0  0  0  0  0  0  0  0  0  0  0
   -0.0146    1.7451    0.5344 C   0  0  0  0  0  0  0  0  0  0  0  0
    0.4865    0.4957    0.2550 C   0  0  0  0  0  0  0  0  0  0  0  0
   -0.5214   -0.5659    0.2884 C   0  0  0  0  0  0  0  0  0  0  0  0
   -1.8682   -0.0752   -0.0914 C   0  0  0  0  0  0  0  0  0  0  0  0
   -2.0832    1.2195   -0.4364 C   0  0  0  0  0  0  0  0  0  0  0  0
   -3.3628    1.6420   -0.7871 C   0  0  0  0  0  0  0  0  0  0  0  0
   -4.4237    0.7673   -0.7915 C   0  0  0  0  0  0  0  0  0  0  0  0
   -4.1744   -0.5315   -0.4388 C   0  0  0  0  0  0  0  0  0  0  0  0
   -2.9275   -0.9412   -0.0976 C   0  0  0  0  0  0  0  0  0  0  0  0
   -0.3949   -1.7712    0.5957 N   0  0  0  0  0  0  0  0  0  0  0  0
    0.8234   -2.5681    1.0434 C   0  0  1  0  0  0  0  0  0  0  0  0
    0.3617   -3.8956    0.4313 O   0  0  0  0  0  0  0  0  0  0  0  0
    1.9004   -2.2178   -0.0302 C   0  0  0  0  0  0  0  0  0  0  0  0
    2.2992   -3.1716   -0.6563 O   0  0  0  0  0  0  0  0  0  0  0  0
  1  2  1  0
  2  3  1  0
  3  4  2  0
  4  5  1  0
  5  6  2  0
  6  7  1  0
  6  8  1  0
  8  9  2  0
  9 10  1  0
 10 11  1  0
 11 12  2  0
 12 13  1  0
 13 14  2  0
 14 15  1  0
 15 16  2  0
 10 17  2  0
 17 18  1  0
 18 19  1  6
 18 20  1  0
 20 21  2  0
 20  2  1  0
  9  3  1  0
 16 11  1  0
M  END
>  <zinc_id>  (1) 
ZINC000000000740

>  <smiles>  (1) 
CN1C(=O)[C@H](O)N=C(c2ccccc2)c2cc(Cl)ccc21

$$$$
