
     RDKit          3D

 26 28  0  0  0  0  0  0  0  0999 V2000
   -6.6493   -2.7524    1.8688 C   0  0  0  0  0  0  0  0  0  0  0  0
   -6.2855   -2.2643    1.5734 O   0  0  0  0  0  0  0  0  0  0  0  0
   -5.5390   -1.2626    0.9672 C   0  0  0  0  0  0  0  0  0  0  0  0
   -6.2109   -0.2448    0.3340 C   0  0  0  0  0  0  0  0  0  0  0  0
   -5.4900    0.7822   -0.2881 C   0  0  0  0  0  0  0  0  0  0  0  0
   -4.1504    0.7549   -0.2552 N   0  0  0  0  0  0  0  0  0  0  0  0
   -3.4532   -0.2140    0.3482 C   0  0  0  0  0  0  0  0  0  0  0  0
   -1.9705   -0.2108    0.3640 C   0  0  0  0  0  0  0  0  0  0  0  0
   -1.4078    1.2763   -0.5425 S   0  0  0  0  0  0  0  0  0  0  0  0
   -1.6881    0.8723   -2.0071 O   0  0  0  0  0  0  0  0  0  0  0  0
    0.3831    1.1496   -0.4433 C   0  0  0  0  0  0  0  0  0  0  0  0
    1.0973    1.7019    0.5564 N   0  0  0  0  0  0  0  0  0  0  0  0
    2.3987    1.4450    0.3689 C   0  0  0  0  0  0  0  0  0  0  0  0
    3.5570    1.7459    1.0442 C   0  0  0  0  0  0  0  0  0  0  0  0
    4.7991    1.3518    0.6285 C   0  0  0  0  0  0  0  0  0  0  0  0
    4.8890    0.6157   -0.5272 C   0  0  0  0  0  0  0  0  0  0  0  0
    6.1062    0.1647   -1.0376 O   0  0  0  0  0  0  0  0  0  0  0  0
    7.2944    0.4977   -0.3062 C   0  0  0  0  0  0  0  0  0  0  0  0
    8.3991   -0.0089   -0.9244 F   0  0  0  0  0  0  0  0  0  0  0  0
    7.1424   -0.0123    0.9705 F   0  0  0  0  0  0  0  0  0  0  0  0
    3.7477    0.2953   -1.2306 C   0  0  0  0  0  0  0  0  0  0  0  0
    2.5041    0.7017   -0.7954 C   0  0  0  0  0  0  0  0  0  0  0  0
    1.2474    0.5495   -1.2510 N   0  0  0  0  0  0  0  0  0  0  0  0
   -4.1664   -1.2384    0.9688 C   0  0  0  0  0  0  0  0  0  0  0  0
   -3.4794   -2.2507    1.5987 O   0  0  0  0  0  0  0  0  0  0  0  0
   -3.0751   -3.4451    0.9545 C   0  0  0  0  0  0  0  0  0  0  0  0
  1  2  1  0
  2  3  1  0
  3  4  2  0
  4  5  1  0
  5  6  2  0
  6  7  1  0
  7  8  1  0
  9  8  1  1
  9 10  2  0
  9 11  1  0
 11 12  2  0
 12 13  1  0
 13 14  2  0
 14 15  1  0
 15 16  2  0
 16 17  1  0
 17 18  1  0
 18 19  1  0
 18 20  1  0
 16 21  1  0
 21 22  2  0
 22 23  1  0
  7 24  2  0
 24 25  1  0
 25 26  1  0
 24  3  1  0
 23 11  1  0
 22 13  1  0
M  END
>  <zinc_id>  (1) 
ZINC000004099200

>  <smiles>  (1) 
COc1ccnc(C[S@](=O)c2nc3ccc(OC(F)F)cc3[nH]2)c1OC

$$$$
