
     RDKit          3D

 21 23  0  0  0  0  0  0  0  0999 V2000
   -4.0886    0.2593   -0.3602 C   0  0  0  0  0  0  0  0  0  0  0  0
   -2.7655   -0.2241    0.0241 N   0  0  0  0  0  0  0  0  0  0  0  0
   -1.7597    0.7826   -0.0038 C   0  0  0  0  0  0  0  0  0  0  0  0
   -2.2707    2.0619   -0.0901 C   0  0  0  0  0  0  0  0  0  0  0  0
   -1.3934    3.1263   -0.1283 C   0  0  0  0  0  0  0  0  0  0  0  0
   -0.0155    2.9204   -0.0807 C   0  0  0  0  0  0  0  0  0  0  0  0
    1.0523    4.3006   -0.1311 Cl  0  0  0  0  0  0  0  0  0  0  0  0
    0.4487    1.6270    0.0047 C   0  0  0  0  0  0  0  0  0  0  0  0
   -0.3956    0.5368    0.0448 C   0  0  0  0  0  0  0  0  0  0  0  0
    0.3035   -0.7038    0.1316 N   0  0  0  0  0  0  0  0  0  0  0  0
    1.7173   -0.6576   -0.0093 C   0  0  0  0  0  0  0  0  0  0  0  0
    2.2667    0.0627   -1.0469 C   0  0  0  0  0  0  0  0  0  0  0  0
    3.6201    0.1494   -1.2425 C   0  0  0  0  0  0  0  0  0  0  0  0
    4.4796   -0.5151   -0.3612 C   0  0  0  0  0  0  0  0  0  0  0  0
    3.9572   -1.2440    0.6875 C   0  0  0  0  0  0  0  0  0  0  0  0
    2.5718   -1.3070    0.8497 C   0  0  0  0  0  0  0  0  0  0  0  0
   -0.2645   -1.9962    0.3494 C   0  0  0  0  0  0  0  0  0  0  0  0
    0.4621   -2.9319   -0.0871 O   0  0  0  0  0  0  0  0  0  0  0  0
   -1.5582   -2.3559    1.0032 C   0  0  0  0  0  0  0  0  0  0  0  0
   -2.6794   -1.6114    0.3649 C   0  0  0  0  0  0  0  0  0  0  0  0
   -3.6882   -2.2800    0.0815 O   0  0  0  0  0  0  0  0  0  0  0  0
  1  2  1  0
  2  3  1  0
  3  4  2  0
  4  5  1  0
  5  6  2  0
  6  7  1  0
  6  8  1  0
  8  9  2  0
  9 10  1  0
 10 11  1  0
 11 12  2  0
 12 13  1  0
 13 14  2  0
 14 15  1  0
 15 16  2  0
 10 17  1  0
 17 18  2  0
 17 19  1  0
 19 20  1  0
 20 21  2  0
 20  2  1  0
  9  3  1  0
 16 11  1  0
M  END
>  <zinc_id>  (1) 
ZINC000000001175

>  <smiles>  (1) 
CN1C(=O)CC(=O)N(c2ccccc2)c2cc(Cl)ccc21

$$$$
