
     RDKit          3D

 18 18  0  0  0  0  0  0  0  0999 V2000
    5.3369   -1.6416   -0.4662 C   0  0  0  0  0  0  0  0  0  0  0  0
    4.1802   -1.2343    0.4605 C   0  0  0  0  0  0  0  0  0  0  0  0
    3.7878    0.0782    0.1852 N   0  0  0  0  0  0  0  0  0  0  0  0
    4.6662    1.1612    0.4748 C   0  0  0  0  0  0  0  0  0  0  0  0
    3.9482    2.4683    0.0875 C   0  0  0  0  0  0  0  0  0  0  0  0
    2.4483    0.3494    0.1034 C   0  0  0  0  0  0  0  0  0  0  0  0
    1.7846    0.2519    1.4953 C   0  0  0  0  0  0  0  0  0  0  0  0
    0.3792    0.5454    1.2834 O   0  0  0  0  0  0  0  0  0  0  0  0
   -0.3461   -0.2841    0.4510 C   0  0  0  0  0  0  0  0  0  0  0  0
    0.2855   -1.2593   -0.0346 O   0  0  0  0  0  0  0  0  0  0  0  0
   -1.7523   -0.0794    0.1140 C   0  0  0  0  0  0  0  0  0  0  0  0
   -2.0634    1.0424   -0.6952 C   0  0  0  0  0  0  0  0  0  0  0  0
   -3.3445    1.2586   -1.0691 C   0  0  0  0  0  0  0  0  0  0  0  0
   -4.3729    0.4299   -0.6969 C   0  0  0  0  0  0  0  0  0  0  0  0
   -5.6990    0.7341   -1.1300 N   0  0  0  0  0  0  0  0  0  0  0  0
   -4.0822   -0.6541    0.0842 C   0  0  0  0  0  0  0  0  0  0  0  0
   -2.7708   -0.8889    0.4761 C   0  0  0  0  0  0  0  0  0  0  0  0
   -2.3854   -2.2778    1.5117 Cl  0  0  0  0  0  0  0  0  0  0  0  0
  1  2  1  0
  2  3  1  0
  3  4  1  0
  4  5  1  0
  3  6  1  0
  6  7  1  0
  7  8  1  0
  8  9  1  0
  9 10  2  0
  9 11  1  0
 11 12  2  0
 12 13  1  0
 13 14  2  0
 14 15  1  0
 14 16  1  0
 16 17  2  0
 17 18  1  0
 17 11  1  0
M  END
>  <zinc_id>  (1) 
ZINC000001530938

>  <smiles>  (1) 
CCN(CC)CCOC(=O)c1ccc(N)cc1Cl

$$$$
