
     RDKit          3D

 20 22  0  0  0  0  0  0  0  0999 V2000
    1.1305   -1.4995    0.8781 C   0  0  0  0  0  0  0  0  0  0  0  0
    0.2938   -0.3584    0.3991 C   0  0  2  0  0  0  0  0  0  0  0  0
    1.1778    0.8736    0.6336 C   0  0  0  0  0  0  0  0  0  0  0  0
    2.4221    0.7832   -0.0825 N   0  0  0  0  0  0  0  0  0  0  0  0
    3.5216    0.2225    0.4256 C   0  0  0  0  0  0  0  0  0  0  0  0
    4.5105    0.3211   -0.5185 C   0  0  0  0  0  0  0  0  0  0  0  0
    3.9864    0.9399   -1.5779 N   0  0  0  0  0  0  0  0  0  0  0  0
    2.7311    1.2052   -1.2868 N   0  0  0  0  0  0  0  0  0  0  0  0
   -0.8784   -0.1551    1.5059 C   0  0  2  0  0  0  0  0  0  0  0  0
   -1.4350   -1.5999    1.6565 C   0  0  0  0  0  0  0  0  0  0  0  0
   -0.8086   -2.5219    2.1438 O   0  0  0  0  0  0  0  0  0  0  0  0
   -2.7025   -1.8181    1.2114 O   0  0  0  0  0  0  0  0  0  0  0  0
   -1.8984    0.5591    0.6400 N   0  0  0  0  0  0  0  0  0  0  0  0
   -2.8180    1.4873    0.1279 C   0  0  0  0  0  0  0  0  0  0  0  0
   -3.5509    2.3284    0.6943 O   0  0  0  0  0  0  0  0  0  0  0  0
   -2.6026    1.1117   -1.2751 C   0  0  0  0  0  0  0  0  0  0  0  0
   -2.2189   -0.2476   -0.5655 C   0  0  1  0  0  0  0  0  0  0  0  0
   -0.4385   -0.4394   -1.1004 S   0  0  0  0  0  0  0  0  0  0  0  0
   -0.0407    0.5718   -2.0826 O   0  0  0  0  0  0  0  0  0  0  0  0
   -0.3815   -1.7638   -1.8271 O   0  0  0  0  0  0  0  0  0  0  0  0
  2  1  1  1
  2  3  1  0
  3  4  1  0
  4  5  1  0
  5  6  2  0
  6  7  1  0
  7  8  2  0
  2  9  1  0
  9 10  1  6
 10 11  2  0
 10 12  1  0
  9 13  1  0
 13 14  1  0
 14 15  2  0
 14 16  1  0
 17 16  1  6
 17 18  1  0
 18 19  2  0
 18 20  2  0
 18  2  1  0
  8  4  1  0
 17 13  1  0
M  END
>  <zinc_id>  (1) 
ZINC000003787060

>  <smiles>  (1) 
C[C@]1(Cn2ccnn2)[C@H](C(=O)O)N2C(=O)C[C@H]2S1(=O)=O

$$$$
