
     RDKit          3D

 29 32  0  0  0  0  0  0  0  0999 V2000
    5.3414    1.2453   -1.1155 O   0  0  0  0  0  0  0  0  0  0  0  0
    5.3215    1.0298   -0.6900 C   0  0  0  0  0  0  0  0  0  0  0  0
    3.9286    1.0138   -0.2656 N   0  0  0  0  0  0  0  0  0  0  0  0
    2.8187    1.5286   -0.9554 C   0  0  0  0  0  0  0  0  0  0  0  0
    1.6088    1.1674    0.0901 C   0  0  1  0  0  0  0  0  0  0  0  0
    0.4750    1.0544   -1.1125 C   0  0  0  0  0  0  0  0  0  0  0  0
   -0.2970   -0.0558   -0.6059 N   0  0  0  0  0  0  0  0  0  0  0  0
   -1.6947   -0.2864   -0.6388 C   0  0  0  0  0  0  0  0  0  0  0  0
   -2.4134   -0.4858   -1.7974 C   0  0  0  0  0  0  0  0  0  0  0  0
   -3.7795   -0.7038   -1.7123 C   0  0  0  0  0  0  0  0  0  0  0  0
   -4.4735   -0.7343   -0.5305 C   0  0  0  0  0  0  0  0  0  0  0  0
   -5.8718   -0.9566   -0.4248 N   0  0  0  0  0  0  0  0  0  0  0  0
   -6.3983   -2.2015   -0.9234 C   0  0  0  0  0  0  0  0  0  0  0  0
   -7.7939   -2.4674   -0.4011 C   0  0  0  0  0  0  0  0  0  0  0  0
   -8.0809   -1.7181    0.7382 O   0  0  0  0  0  0  0  0  0  0  0  0
   -8.1011   -0.3516    0.4442 C   0  0  0  0  0  0  0  0  0  0  0  0
   -6.6934    0.0439    0.1622 C   0  0  0  0  0  0  0  0  0  0  0  0
   -6.2676    1.1912    0.4295 O   0  0  0  0  0  0  0  0  0  0  0  0
   -3.7344   -0.5309    0.6365 C   0  0  0  0  0  0  0  0  0  0  0  0
   -2.3725   -0.3128    0.5621 C   0  0  0  0  0  0  0  0  0  0  0  0
    0.6379   -0.9365   -0.0311 C   0  0  0  0  0  0  0  0  0  0  0  0
    0.3770   -2.1071    0.3521 O   0  0  0  0  0  0  0  0  0  0  0  0
    1.8499   -0.3428    0.0481 O   0  0  0  0  0  0  0  0  0  0  0  0
    6.3365    0.4185    0.2154 C   0  0  0  0  0  0  0  0  0  0  0  0
    6.0531   -0.1480    1.3962 C   0  0  0  0  0  0  0  0  0  0  0  0
    7.0507   -0.6638    2.1188 C   0  0  0  0  0  0  0  0  0  0  0  0
    8.3164   -0.5905    1.6205 C   0  0  0  0  0  0  0  0  0  0  0  0
    9.8421   -1.1490    2.2758 Cl  0  0  0  0  0  0  0  0  0  0  0  0
    8.0144    0.2278    0.1146 S   0  0  0  0  0  0  0  0  0  0  0  0
  1  2  2  0
  2  3  1  0
  3  4  1  0
  5  4  1  6
  5  6  1  0
  6  7  1  0
  7  8  1  0
  8  9  2  0
  9 10  1  0
 10 11  2  0
 11 12  1  0
 12 13  1  0
 13 14  1  0
 14 15  1  0
 15 16  1  0
 16 17  1  0
 17 18  2  0
 11 19  1  0
 19 20  2  0
  7 21  1  0
 21 22  2  0
 21 23  1  0
  2 24  1  0
 24 25  2  0
 25 26  1  0
 26 27  2  0
 27 28  1  0
 27 29  1  0
 23  5  1  0
 29 24  1  0
 20  8  1  0
 17 12  1  0
M  END
>  <zinc_id>  (1) 
ZINC000003964126

>  <smiles>  (1) 
O=C(NC[C@H]1CN(c2ccc(N3CCOCC3=O)cc2)C(=O)O1)c1ccc(Cl)s1

$$$$
