
     RDKit          3D

 19 19  0  0  0  0  0  0  0  0999 V2000
   -5.2164    1.7661   -2.0843 C   0  0  0  0  0  0  0  0  0  0  0  0
   -5.3232    0.7163   -0.9893 C   0  0  0  0  0  0  0  0  0  0  0  0
   -4.7180    1.2997    0.2636 C   0  0  0  0  0  0  0  0  0  0  0  0
   -4.7715    0.3367    1.4200 C   0  0  0  0  0  0  0  0  0  0  0  0
   -4.0432   -0.8564    1.0859 N   0  0  0  0  0  0  0  0  0  0  0  0
   -2.6577   -0.8504    0.7581 C   0  0  0  0  0  0  0  0  0  0  0  0
   -2.0670   -2.0366    0.4574 C   0  0  0  0  0  0  0  0  0  0  0  0
   -0.7297   -2.0488    0.1385 C   0  0  0  0  0  0  0  0  0  0  0  0
    0.0009   -0.8898    0.1221 C   0  0  0  0  0  0  0  0  0  0  0  0
    1.4081   -0.9761   -0.2233 C   0  0  0  0  0  0  0  0  0  0  0  0
    1.9444   -2.0773   -0.4996 O   0  0  0  0  0  0  0  0  0  0  0  0
    2.2473    0.1336   -0.2721 O   0  0  0  0  0  0  0  0  0  0  0  0
    3.6197   -0.0059   -0.6165 C   0  0  0  0  0  0  0  0  0  0  0  0
    4.3376    1.3107   -0.6085 C   0  0  0  0  0  0  0  0  0  0  0  0
    5.7258    1.1261   -0.9628 N   0  0  0  0  0  0  0  0  0  0  0  0
    6.4671    2.3498   -0.9730 C   0  0  0  0  0  0  0  0  0  0  0  0
    6.3608    0.0636   -0.2400 C   0  0  0  0  0  0  0  0  0  0  0  0
   -0.6191    0.2890    0.4288 C   0  0  0  0  0  0  0  0  0  0  0  0
   -1.9658    0.3498    0.7564 C   0  0  0  0  0  0  0  0  0  0  0  0
  1  2  1  0
  2  3  1  0
  3  4  1  0
  4  5  1  0
  5  6  1  0
  6  7  2  0
  7  8  1  0
  8  9  2  0
  9 10  1  0
 10 11  2  0
 10 12  1  0
 12 13  1  0
 13 14  1  0
 14 15  1  0
 15 16  1  0
 15 17  1  0
  9 18  1  0
 18 19  2  0
 19  6  1  0
M  END
>  <zinc_id>  (1) 
ZINC000001530811

>  <smiles>  (1) 
CCCCNc1ccc(C(=O)OCCN(C)C)cc1

$$$$
