
     RDKit          3D

 30 33  0  0  0  0  0  0  0  0999 V2000
    1.1086   -0.2975    3.7007 C   0  0  0  0  0  0  0  0  0  0  0  0
    1.5056   -1.0204    2.7633 C   0  0  0  0  0  0  0  0  0  0  0  0
    2.1007   -2.1681    2.9409 O   0  0  0  0  0  0  0  0  0  0  0  0
    2.4113   -2.7194    1.8033 N   0  0  0  0  0  0  0  0  0  0  0  0
    2.0085   -1.9080    0.7770 C   0  0  0  0  0  0  0  0  0  0  0  0
    2.1529   -2.1350   -0.6412 C   0  0  0  0  0  0  0  0  0  0  0  0
    3.2433   -1.5906   -1.2674 C   0  0  0  0  0  0  0  0  0  0  0  0
    4.4844   -0.6246   -0.4941 Cl  0  0  0  0  0  0  0  0  0  0  0  0
    3.4378   -1.7827   -2.6475 C   0  0  0  0  0  0  0  0  0  0  0  0
    2.5531   -2.5094   -3.3895 C   0  0  0  0  0  0  0  0  0  0  0  0
    1.4610   -3.0570   -2.7718 C   0  0  0  0  0  0  0  0  0  0  0  0
    1.2814   -2.8620   -1.4206 C   0  0  0  0  0  0  0  0  0  0  0  0
   -0.1337   -3.5992   -0.7066 Cl  0  0  0  0  0  0  0  0  0  0  0  0
    1.4331   -0.8270    1.3981 C   0  0  0  0  0  0  0  0  0  0  0  0
    0.8489    0.3509    0.7402 C   0  0  0  0  0  0  0  0  0  0  0  0
    0.3531    1.2004    1.5098 O   0  0  0  0  0  0  0  0  0  0  0  0
    0.7363    0.7127   -0.5497 N   0  0  0  0  0  0  0  0  0  0  0  0
    0.1712    1.8681   -1.2799 C   0  0  2  0  0  0  0  0  0  0  0  0
   -0.3238    2.8685   -0.2057 C   0  0  0  0  0  0  0  0  0  0  0  0
    0.3282    3.7132    0.4039 O   0  0  0  0  0  0  0  0  0  0  0  0
   -1.6358    2.3849   -0.2990 N   0  0  0  0  0  0  0  0  0  0  0  0
   -1.4403    1.5625   -1.5365 C   0  0  2  0  0  0  0  0  0  0  0  0
   -1.8550   -0.0327   -0.6314 S   0  0  0  0  0  0  0  0  0  0  0  0
   -3.2953    0.6767    0.0786 C   0  0  0  0  0  0  0  0  0  0  0  0
   -4.6001    0.3401   -0.4621 C   0  0  0  0  0  0  0  0  0  0  0  0
   -3.3559    0.3067    1.5691 C   0  0  0  0  0  0  0  0  0  0  0  0
   -3.0714    2.2669    0.1609 C   0  0  2  0  0  0  0  0  0  0  0  0
   -3.8217    2.7994   -1.0985 C   0  0  0  0  0  0  0  0  0  0  0  0
   -5.0419    2.7354   -1.2013 O   0  0  0  0  0  0  0  0  0  0  0  0
   -3.0447    3.3471   -2.0861 O   0  0  0  0  0  0  0  0  0  0  0  0
  1  2  1  0
  2  3  1  0
  3  4  1  0
  4  5  2  0
  5  6  1  0
  6  7  2  0
  7  8  1  0
  7  9  1  0
  9 10  2  0
 10 11  1  0
 11 12  2  0
 12 13  1  0
  5 14  1  0
 14 15  1  0
 15 16  2  0
 15 17  1  0
 18 17  1  1
 18 19  1  0
 19 20  2  0
 19 21  1  0
 21 22  1  0
 22 23  1  1
 23 24  1  0
 24 25  1  0
 24 26  1  0
 24 27  1  0
 27 28  1  6
 28 29  2  0
 28 30  1  0
 14  2  2  0
 22 18  1  0
 12  6  1  0
 27 21  1  0
M  END
>  <zinc_id>  (1) 
ZINC000003978006

>  <smiles>  (1) 
Cc1onc(-c2c(Cl)cccc2Cl)c1C(=O)N[C@@H]1C(=O)N2[C@@H](C(=O)O)C(C)(C)S[C@H]12

$$$$
