
     RDKit          3D

 18 19  0  0  0  0  0  0  0  0999 V2000
    1.0199    1.3802   -0.1074 O   0  0  0  0  0  0  0  0  0  0  0  0
    1.4977    0.3097    0.2885 C   0  0  0  0  0  0  0  0  0  0  0  0
    0.6616   -0.6392    0.8393 O   0  0  0  0  0  0  0  0  0  0  0  0
   -0.6685   -0.4177    0.9527 O   0  0  0  0  0  0  0  0  0  0  0  0
   -1.5105   -0.2666   -0.1392 C   0  0  0  0  0  0  0  0  0  0  0  0
   -0.9921   -0.3425   -1.2816 O   0  0  0  0  0  0  0  0  0  0  0  0
   -2.9420   -0.0288    0.0407 C   0  0  0  0  0  0  0  0  0  0  0  0
   -3.8039    0.1252   -1.0019 C   0  0  0  0  0  0  0  0  0  0  0  0
   -5.1640    0.3507   -0.7825 C   0  0  0  0  0  0  0  0  0  0  0  0
   -5.6460    0.4192    0.5056 C   0  0  0  0  0  0  0  0  0  0  0  0
   -4.7799    0.2641    1.5886 C   0  0  0  0  0  0  0  0  0  0  0  0
   -3.4454    0.0434    1.3200 C   0  0  0  0  0  0  0  0  0  0  0  0
    2.9231    0.0214    0.1895 C   0  0  0  0  0  0  0  0  0  0  0  0
    3.7520    0.9679   -0.3591 C   0  0  0  0  0  0  0  0  0  0  0  0
    5.0949    0.7549   -0.4782 C   0  0  0  0  0  0  0  0  0  0  0  0
    5.6799   -0.4235   -0.0517 C   0  0  0  0  0  0  0  0  0  0  0  0
    4.8385   -1.3685    0.4981 C   0  0  0  0  0  0  0  0  0  0  0  0
    3.4846   -1.1497    0.6165 C   0  0  0  0  0  0  0  0  0  0  0  0
  1  2  2  0
  2  3  1  0
  3  4  1  0
  4  5  1  0
  5  6  2  0
  5  7  1  0
  7  8  2  0
  8  9  1  0
  9 10  2  0
 10 11  1  0
 11 12  2  0
  2 13  1  0
 13 14  2  0
 14 15  1  0
 15 16  2  0
 16 17  1  0
 17 18  2  0
 12  7  1  0
 18 13  1  0
M  END
>  <zinc_id>  (1) 
ZINC000000001016

>  <smiles>  (1) 
O=C(OOC(=O)c1ccccc1)c1ccccc1

$$$$
