
     RDKit          3D

 25 27  0  0  0  0  0  0  0  0999 V2000
   -4.6085    4.3756   -0.2287 C   0  0  0  0  0  0  0  0  0  0  0  0
   -4.5106    2.9741   -0.4229 O   0  0  0  0  0  0  0  0  0  0  0  0
   -3.2496    2.3917   -0.3881 C   0  0  0  0  0  0  0  0  0  0  0  0
   -2.0891    3.1062   -0.1757 C   0  0  0  0  0  0  0  0  0  0  0  0
   -0.8902    2.4437   -0.1585 C   0  0  0  0  0  0  0  0  0  0  0  0
   -0.8040    1.0675   -0.3490 C   0  0  0  0  0  0  0  0  0  0  0  0
   -1.9476    0.3403   -0.5616 C   0  0  0  0  0  0  0  0  0  0  0  0
   -3.1465    1.0220   -0.5760 C   0  0  0  0  0  0  0  0  0  0  0  0
   -1.5791   -0.9639   -0.7196 C   0  0  0  0  0  0  0  0  0  0  0  0
   -2.4908   -2.0907   -0.9784 C   0  0  0  0  0  0  0  0  0  0  0  0
   -3.2402   -2.5714    0.1759 C   0  0  0  0  0  0  0  0  0  0  0  0
   -3.1305   -2.0823    1.3247 O   0  0  0  0  0  0  0  0  0  0  0  0
   -4.1222   -3.6373   -0.0406 O   0  0  0  0  0  0  0  0  0  0  0  0
   -0.2008   -0.9673   -0.5924 C   0  0  0  0  0  0  0  0  0  0  0  0
    0.5632   -2.2346   -0.6719 C   0  0  0  0  0  0  0  0  0  0  0  0
    0.3039    0.2491   -0.3683 N   0  0  0  0  0  0  0  0  0  0  0  0
    1.6250    0.7164   -0.1597 C   0  0  0  0  0  0  0  0  0  0  0  0
    1.7308    1.9806    0.1376 O   0  0  0  0  0  0  0  0  0  0  0  0
    2.8681   -0.0145   -0.2307 C   0  0  0  0  0  0  0  0  0  0  0  0
    3.8564    0.2123    0.7498 C   0  0  0  0  0  0  0  0  0  0  0  0
    5.0715   -0.4294    0.6827 C   0  0  0  0  0  0  0  0  0  0  0  0
    5.3980   -1.3128   -0.3194 C   0  0  0  0  0  0  0  0  0  0  0  0
    6.9427   -2.1275   -0.3993 Cl  0  0  0  0  0  0  0  0  0  0  0  0
    4.4301   -1.5491   -1.2991 C   0  0  0  0  0  0  0  0  0  0  0  0
    3.2202   -0.8985   -1.2155 C   0  0  0  0  0  0  0  0  0  0  0  0
  1  2  1  0
  2  3  1  0
  3  4  2  0
  4  5  1  0
  5  6  2  0
  6  7  1  0
  7  8  2  0
  7  9  1  0
  9 10  1  0
 10 11  1  0
 11 12  2  0
 11 13  1  0
  9 14  2  0
 14 15  1  0
 14 16  1  0
 16 17  1  0
 17 18  2  0
 17 19  1  0
 19 20  2  0
 20 21  1  0
 21 22  2  0
 22 23  1  0
 22 24  1  0
 24 25  2  0
  8  3  1  0
 25 19  1  0
 16  6  1  0
M  END
>  <zinc_id>  (1) 
ZINC000000601283

>  <smiles>  (1) 
COc1ccc2c(c1)c(CC(=O)O)c(C)n2C(=O)c1ccc(Cl)cc1

$$$$
