
     RDKit          3D

 29 32  0  0  0  0  0  0  0  0999 V2000
   -2.0509   -4.1065   -0.4581 C   0  0  0  0  0  0  0  0  0  0  0  0
   -1.7158   -3.6683   -0.4175 C   0  0  0  0  0  0  0  0  0  0  0  0
   -1.4401   -2.3642    0.0530 O   0  0  0  0  0  0  0  0  0  0  0  0
   -2.2912   -1.3490   -0.3342 C   0  0  0  0  0  0  0  0  0  0  0  0
   -3.3828   -1.5705   -1.1477 C   0  0  0  0  0  0  0  0  0  0  0  0
   -4.2399   -0.5763   -1.5372 C   0  0  0  0  0  0  0  0  0  0  0  0
   -3.9920    0.7021   -1.0917 C   0  0  0  0  0  0  0  0  0  0  0  0
   -4.8286    1.7366   -1.4628 C   0  0  0  0  0  0  0  0  0  0  0  0
   -4.6081    3.0452   -1.0357 C   0  0  0  0  0  0  0  0  0  0  0  0
   -3.5418    3.2915   -0.2365 C   0  0  0  0  0  0  0  0  0  0  0  0
   -2.7029    2.2469    0.1346 C   0  0  0  0  0  0  0  0  0  0  0  0
   -2.8971    0.9435   -0.2735 C   0  0  0  0  0  0  0  0  0  0  0  0
   -2.0206   -0.0800    0.1244 C   0  0  0  0  0  0  0  0  0  0  0  0
   -0.8904    0.3073    0.9475 C   0  0  0  0  0  0  0  0  0  0  0  0
   -0.9192    1.4373    1.4774 O   0  0  0  0  0  0  0  0  0  0  0  0
    0.2500   -0.4440    1.2202 N   0  0  0  0  0  0  0  0  0  0  0  0
    1.3705    0.1321    2.1370 C   0  0  2  0  0  0  0  0  0  0  0  0
    1.8772    1.3775    1.1721 C   0  0  0  0  0  0  0  0  0  0  0  0
    1.5842    2.5123    1.4278 O   0  0  0  0  0  0  0  0  0  0  0  0
    2.5035    0.5026    0.3822 N   0  0  0  0  0  0  0  0  0  0  0  0
    2.7646   -0.6107    1.4307 C   0  0  2  0  0  0  0  0  0  0  0  0
    2.1462   -1.9322    0.2278 S   0  0  0  0  0  0  0  0  0  0  0  0
    3.5221   -1.4036   -0.7443 C   0  0  0  0  0  0  0  0  0  0  0  0
    4.8600   -1.4473   -0.2233 C   0  0  0  0  0  0  0  0  0  0  0  0
    3.3954   -1.9543   -2.1455 C   0  0  0  0  0  0  0  0  0  0  0  0
    2.9755    0.1365   -0.9701 C   0  0  2  0  0  0  0  0  0  0  0  0
    4.4022    0.8606   -0.9842 C   0  0  0  0  0  0  0  0  0  0  0  0
    5.0512    0.6848   -2.0146 O   0  0  0  0  0  0  0  0  0  0  0  0
    4.8189    1.5901    0.0680 O   0  0  0  0  0  0  0  0  0  0  0  0
  1  2  1  0
  2  3  1  0
  3  4  1  0
  4  5  2  0
  5  6  1  0
  6  7  2  0
  7  8  1  0
  8  9  2  0
  9 10  1  0
 10 11  2  0
 11 12  1  0
 12 13  2  0
 13 14  1  0
 14 15  2  0
 14 16  1  0
 17 16  1  6
 17 18  1  0
 18 19  2  0
 18 20  1  0
 20 21  1  0
 21 22  1  6
 22 23  1  0
 23 24  1  0
 23 25  1  0
 23 26  1  0
 26 27  1  1
 27 28  2  0
 27 29  1  0
 13  4  1  0
 21 17  1  0
 12  7  1  0
 26 20  1  0
M  END
>  <zinc_id>  (1) 
ZINC000003875980

>  <smiles>  (1) 
CCOc1ccc2ccccc2c1C(=O)N[C@@H]1C(=O)N2[C@@H](C(=O)O)C(C)(C)S[C@H]12

$$$$
