
     RDKit          3D

 32 36  0  0  0  0  0  0  0  0999 V2000
   -2.4601    1.0846   -2.2599 N   0  0  0  0  0  0  0  0  0  0  0  0
   -2.6130    0.3274   -1.8148 C   0  0  0  0  0  0  0  0  0  0  0  0
   -2.7997   -0.7169   -2.5397 O   0  0  0  0  0  0  0  0  0  0  0  0
   -2.6692    0.1696   -0.3844 C   0  0  0  0  0  0  0  0  0  0  0  0
   -3.7280    1.0289    0.2314 C   0  0  0  0  0  0  0  0  0  0  0  0
   -4.5975    1.7607   -0.5427 C   0  0  0  0  0  0  0  0  0  0  0  0
   -5.5929    2.5640   -0.0395 C   0  0  0  0  0  0  0  0  0  0  0  0
   -5.7413    2.6520    1.3212 C   0  0  0  0  0  0  0  0  0  0  0  0
   -4.8903    1.9346    2.1289 C   0  0  0  0  0  0  0  0  0  0  0  0
   -3.8844    1.1236    1.5934 C   0  0  0  0  0  0  0  0  0  0  0  0
   -2.9239   -1.2473   -0.0008 C   0  0  0  0  0  0  0  0  0  0  0  0
   -4.0042   -1.8733   -0.5736 C   0  0  0  0  0  0  0  0  0  0  0  0
   -4.2773   -3.1936   -0.2405 C   0  0  0  0  0  0  0  0  0  0  0  0
   -3.4688   -3.8573    0.6536 C   0  0  0  0  0  0  0  0  0  0  0  0
   -2.3804   -3.2373    1.2349 C   0  0  0  0  0  0  0  0  0  0  0  0
   -2.1279   -1.9250    0.8893 C   0  0  0  0  0  0  0  0  0  0  0  0
   -1.2784    0.5339    0.3444 C   0  0  2  0  0  0  0  0  0  0  0  0
   -1.2354    2.0705   -0.1666 C   0  0  0  0  0  0  0  0  0  0  0  0
    0.2739    2.1933   -0.1683 C   0  0  0  0  0  0  0  0  0  0  0  0
    0.6503    1.0701   -0.9497 N   0  0  0  0  0  0  0  0  0  0  0  0
    2.0227    0.7010   -0.9253 C   0  0  0  0  0  0  0  0  0  0  0  0
    2.4901    0.1631    0.4012 C   0  0  0  0  0  0  0  0  0  0  0  0
    3.9232   -0.1988    0.3427 C   0  0  0  0  0  0  0  0  0  0  0  0
    4.2678   -1.4845   -0.0325 C   0  0  0  0  0  0  0  0  0  0  0  0
    5.5980   -1.8480   -0.0954 C   0  0  0  0  0  0  0  0  0  0  0  0
    6.5979   -0.9373    0.2138 C   0  0  0  0  0  0  0  0  0  0  0  0
    6.2320    0.3589    0.5916 C   0  0  0  0  0  0  0  0  0  0  0  0
    4.9071    0.6988    0.6476 C   0  0  0  0  0  0  0  0  0  0  0  0
    7.5019    1.1151    0.8636 C   0  0  0  0  0  0  0  0  0  0  0  0
    8.5322   -0.0070    1.0221 C   0  0  0  0  0  0  0  0  0  0  0  0
    7.9712   -1.0585    0.2254 O   0  0  0  0  0  0  0  0  0  0  0  0
   -0.2957    0.0348   -0.8421 C   0  0  0  0  0  0  0  0  0  0  0  0
  1  2  1  0
  2  3  2  0
  2  4  1  0
  4  5  1  0
  5  6  2  0
  6  7  1  0
  7  8  2  0
  8  9  1  0
  9 10  2  0
  4 11  1  0
 11 12  2  0
 12 13  1  0
 13 14  2  0
 14 15  1  0
 15 16  2  0
 17  4  1  6
 17 18  1  0
 18 19  1  0
 19 20  1  0
 20 21  1  0
 21 22  1  0
 22 23  1  0
 23 24  2  0
 24 25  1  0
 25 26  2  0
 26 27  1  0
 27 28  2  0
 27 29  1  0
 29 30  1  0
 30 31  1  0
 20 32  1  0
 10  5  1  0
 16 11  1  0
 32 17  1  0
 28 23  1  0
 31 26  1  0
M  END
>  <zinc_id>  (1) 
ZINC000001996117

>  <smiles>  (1) 
NC(=O)C(c1ccccc1)(c1ccccc1)[C@@H]1CCN(CCc2ccc3c(c2)CCO3)C1

$$$$
