
     RDKit          3D

 10  9  0  0  0  0  0  0  0  0999 V2000
   -1.3108   -0.7364    1.7518 O   0  0  0  0  0  0  0  0  0  0  0  0
   -1.2777   -0.8425    0.8277 C   0  0  0  0  0  0  0  0  0  0  0  0
   -1.4329   -2.1441    0.2615 O   0  0  0  0  0  0  0  0  0  0  0  0
   -1.0767    0.1806   -0.3009 C   0  0  1  0  0  0  0  0  0  0  0  0
   -0.6236    1.6946    0.7067 S   0  0  0  0  0  0  0  0  0  0  0  0
    0.3315   -0.3040   -0.8821 C   0  0  1  0  0  0  0  0  0  0  0  0
    0.4274    1.0301   -2.2728 S   0  0  0  0  0  0  0  0  0  0  0  0
    1.3742    0.2606    0.0687 C   0  0  0  0  0  0  0  0  0  0  0  0
    2.1962    1.1406   -0.1729 O   0  0  0  0  0  0  0  0  0  0  0  0
    1.3926   -0.2795    1.3379 O   0  0  0  0  0  0  0  0  0  0  0  0
  1  2  2  0
  2  3  1  0
  2  4  1  0
  4  5  1  1
  4  6  1  0
  6  7  1  6
  6  8  1  0
  8  9  2  0
  8 10  1  0
M  END
>  <zinc_id>  (1) 
ZINC000003831475

>  <smiles>  (1) 
O=C(O)[C@H](S)[C@H](S)C(=O)O

$$$$
