
     RDKit          3D

 16 18  0  0  0  0  0  0  0  0999 V2000
    5.0404    0.6463    0.1011 O   0  0  0  0  0  0  0  0  0  0  0  0
    3.7849    0.4628    0.1212 C   0  0  0  0  0  0  0  0  0  0  0  0
    2.8791    0.8716   -0.9518 C   0  0  0  0  0  0  0  0  0  0  0  0
    1.5882    0.4335   -0.4301 N   0  0  0  0  0  0  0  0  0  0  0  0
    0.3120    0.5609   -1.0404 C   0  0  0  0  0  0  0  0  0  0  0  0
   -0.8302    0.0223   -0.2753 C   0  0  0  0  0  0  0  0  0  0  0  0
   -2.1097    0.1380   -0.8633 C   0  0  0  0  0  0  0  0  0  0  0  0
   -2.2756    0.8998   -2.4402 Cl  0  0  0  0  0  0  0  0  0  0  0  0
   -3.2275   -0.3323   -0.2286 C   0  0  0  0  0  0  0  0  0  0  0  0
   -4.8163   -0.1675   -1.0011 Cl  0  0  0  0  0  0  0  0  0  0  0  0
   -3.0988   -0.9256    0.9993 C   0  0  0  0  0  0  0  0  0  0  0  0
   -1.8534   -1.0439    1.5831 C   0  0  0  0  0  0  0  0  0  0  0  0
   -0.7094   -0.5728    0.9540 C   0  0  0  0  0  0  0  0  0  0  0  0
    0.5781   -0.6768    1.5206 N   0  0  0  0  0  0  0  0  0  0  0  0
    1.7459   -0.1721    0.8307 C   0  0  0  0  0  0  0  0  0  0  0  0
    2.9923   -0.1442    1.1209 N   0  0  0  0  0  0  0  0  0  0  0  0
  1  2  2  0
  2  3  1  0
  3  4  1  0
  4  5  1  0
  5  6  1  0
  6  7  2  0
  7  8  1  0
  7  9  1  0
  9 10  1  0
  9 11  2  0
 11 12  1  0
 12 13  2  0
 13 14  1  0
 14 15  1  0
 15 16  2  0
 16  2  1  0
 15  4  1  0
 13  6  1  0
M  END
>  <zinc_id>  (1) 
ZINC000003871541

>  <smiles>  (1) 
O=C1CN2Cc3c(ccc(Cl)c3Cl)NC2=N1

$$$$
