
     RDKit          3D

 24 26  0  0  0  0  0  0  0  0999 V2000
    8.1194    0.0094   -0.6833 C   0  0  0  0  0  0  0  0  0  0  0  0
    7.0211    0.8325   -0.6983 O   0  0  0  0  0  0  0  0  0  0  0  0
    5.8019    0.3634   -0.2577 C   0  0  0  0  0  0  0  0  0  0  0  0
    5.6577   -0.9285    0.2032 C   0  0  0  0  0  0  0  0  0  0  0  0
    4.4560   -1.4345    0.6519 C   0  0  0  0  0  0  0  0  0  0  0  0
    3.3305   -0.6473    0.6552 C   0  0  0  0  0  0  0  0  0  0  0  0
    2.0365   -0.8384    1.0214 N   0  0  0  0  0  0  0  0  0  0  0  0
    1.3349    0.2871    0.8135 C   0  0  0  0  0  0  0  0  0  0  0  0
   -0.4126    0.5345    1.1404 S   0  0  0  0  0  0  0  0  0  0  0  0
   -0.7508   -0.6341    2.0865 O   0  0  0  0  0  0  0  0  0  0  0  0
   -1.2400    0.0003   -0.4030 C   0  0  0  0  0  0  0  0  0  0  0  0
   -2.7095    0.1563   -0.2637 C   0  0  0  0  0  0  0  0  0  0  0  0
   -3.2072    0.6286    0.8768 N   0  0  0  0  0  0  0  0  0  0  0  0
   -4.5426    0.7815    1.0321 C   0  0  0  0  0  0  0  0  0  0  0  0
   -5.3651    0.4378   -0.0138 C   0  0  0  0  0  0  0  0  0  0  0  0
   -6.8537    0.5898    0.1114 C   0  0  0  0  0  0  0  0  0  0  0  0
   -4.8534   -0.0533   -1.2009 C   0  0  0  0  0  0  0  0  0  0  0  0
   -5.6533   -0.4048   -2.2628 O   0  0  0  0  0  0  0  0  0  0  0  0
   -6.1282   -1.7316   -2.3437 C   0  0  0  0  0  0  0  0  0  0  0  0
   -3.4851   -0.2002   -1.3346 C   0  0  0  0  0  0  0  0  0  0  0  0
   -2.8780   -0.7192   -2.5768 C   0  0  0  0  0  0  0  0  0  0  0  0
    2.2157    1.1677    0.3161 N   0  0  0  0  0  0  0  0  0  0  0  0
    3.4495    0.6492    0.1986 C   0  0  0  0  0  0  0  0  0  0  0  0
    4.6561    1.1538   -0.2507 C   0  0  0  0  0  0  0  0  0  0  0  0
  1  2  1  0
  2  3  1  0
  3  4  2  0
  4  5  1  0
  5  6  2  0
  6  7  1  0
  7  8  2  0
  8  9  1  0
  9 10  2  0
  9 11  1  6
 11 12  1  0
 12 13  2  0
 13 14  1  0
 14 15  2  0
 15 16  1  0
 15 17  1  0
 17 18  1  0
 18 19  1  0
 17 20  2  0
 20 21  1  0
  8 22  1  0
 22 23  1  0
 23 24  2  0
 24  3  1  0
 23  6  1  0
 20 12  1  0
M  END
>  <zinc_id>  (1) 
ZINC000004693574

>  <smiles>  (1) 
COc1ccc2nc([S@](=O)Cc3ncc(C)c(OC)c3C)[nH]c2c1

$$$$
