
     RDKit          3D

 21 22  0  0  0  0  0  0  0  0999 V2000
    3.5984    3.3621    0.2299 C   0  0  0  0  0  0  0  0  0  0  0  0
    3.5952    2.0447   -0.2446 C   0  0  0  0  0  0  0  0  0  0  0  0
    3.9382    0.9932    0.8076 C   0  0  0  0  0  0  0  0  0  0  0  0
    3.8922   -0.3630    0.1424 C   0  0  0  0  0  0  0  0  0  0  0  0
    2.5820   -0.5802   -0.3716 N   0  0  0  0  0  0  0  0  0  0  0  0
    2.3730   -1.7202   -0.9839 C   0  0  0  0  0  0  0  0  0  0  0  0
    1.9236   -2.9879   -0.4286 C   0  0  0  0  0  0  0  0  0  0  0  0
    0.9761   -2.6440    0.7011 C   0  0  0  0  0  0  0  0  0  0  0  0
    1.5675   -1.5935    1.4871 C   0  0  0  0  0  0  0  0  0  0  0  0
    1.6177   -0.1441    0.7624 C   0  0  2  0  0  0  0  0  0  0  0  0
    0.2471   -0.2059   -0.0039 C   0  0  0  0  0  0  0  0  0  0  0  0
    0.0313   -0.6237   -1.0971 O   0  0  0  0  0  0  0  0  0  0  0  0
   -0.8126    0.3186    0.7565 N   0  0  0  0  0  0  0  0  0  0  0  0
   -2.1751    0.4161    0.3473 C   0  0  0  0  0  0  0  0  0  0  0  0
   -3.1107   -0.5527    0.6067 C   0  0  0  0  0  0  0  0  0  0  0  0
   -2.7198   -1.7822    1.3706 C   0  0  0  0  0  0  0  0  0  0  0  0
   -4.4366   -0.4295    0.1846 C   0  0  0  0  0  0  0  0  0  0  0  0
   -4.8450    0.6689   -0.5047 C   0  0  0  0  0  0  0  0  0  0  0  0
   -3.9275    1.6522   -0.7761 C   0  0  0  0  0  0  0  0  0  0  0  0
   -2.6263    1.5347   -0.3639 C   0  0  0  0  0  0  0  0  0  0  0  0
   -1.6889    2.6364   -0.6925 C   0  0  0  0  0  0  0  0  0  0  0  0
  1  2  1  0
  2  3  1  0
  3  4  1  0
  4  5  1  0
  5  6  1  0
  6  7  1  0
  7  8  1  0
  8  9  1  0
  9 10  1  0
 10 11  1  6
 11 12  2  0
 11 13  1  0
 13 14  1  0
 14 15  2  0
 15 16  1  0
 15 17  1  0
 17 18  2  0
 18 19  1  0
 19 20  2  0
 20 21  1  0
 10  5  1  0
 20 14  1  0
M  END
>  <zinc_id>  (1) 
ZINC000001530814

>  <smiles>  (1) 
CCCCN1CCCC[C@@H]1C(=O)Nc1c(C)cccc1C

$$$$
