
     RDKit          3D

 15 15  0  0  0  0  0  0  0  0999 V2000
    5.1478    1.4910   -0.3076 C   0  0  0  0  0  0  0  0  0  0  0  0
    5.1949   -0.0309   -0.3457 C   0  0  0  0  0  0  0  0  0  0  0  0
    3.7441   -0.5125   -0.3401 C   0  0  0  0  0  0  0  0  0  0  0  0
    3.1359    0.0247    0.9567 C   0  0  0  0  0  0  0  0  0  0  0  0
    1.8013   -0.4162    0.9655 O   0  0  0  0  0  0  0  0  0  0  0  0
    1.2021    0.1182   -0.1642 C   0  0  0  0  0  0  0  0  0  0  0  0
   -0.2204   -0.2600   -0.2968 C   0  0  0  0  0  0  0  0  0  0  0  0
   -0.6689   -1.3665   -0.9530 C   0  0  0  0  0  0  0  0  0  0  0  0
   -2.0348   -1.6322   -1.0197 C   0  0  0  0  0  0  0  0  0  0  0  0
   -2.9579   -0.7945   -0.4317 C   0  0  0  0  0  0  0  0  0  0  0  0
   -4.3264   -1.0118   -0.4680 O   0  0  0  0  0  0  0  0  0  0  0  0
   -2.5154    0.3247    0.2330 C   0  0  0  0  0  0  0  0  0  0  0  0
   -3.4196    1.1776    0.8292 O   0  0  0  0  0  0  0  0  0  0  0  0
   -2.9281    2.3180    1.5034 C   0  0  0  0  0  0  0  0  0  0  0  0
   -1.1546    0.5704    0.2876 C   0  0  0  0  0  0  0  0  0  0  0  0
  1  2  1  0
  2  3  1  0
  3  4  1  0
  4  5  1  0
  5  6  1  0
  6  7  1  0
  7  8  2  0
  8  9  1  0
  9 10  2  0
 10 11  1  0
 10 12  1  0
 12 13  1  0
 13 14  1  0
 12 15  2  0
 15  7  1  0
M  END
>  <zinc_id>  (1) 
ZINC000002561203

>  <smiles>  (1) 
CCCCOCc1ccc(O)c(OC)c1

$$$$
