
     RDKit          3D

 27 31  0  0  0  0  0  0  0  0999 V2000
    1.5625   -0.6035   -2.1419 O   0  0  0  0  0  0  0  0  0  0  0  0
    0.9786   -0.2084   -1.1177 C   0  0  0  0  0  0  0  0  0  0  0  0
    1.7686    0.4836   -0.2090 O   0  0  0  0  0  0  0  0  0  0  0  0
    3.2434    0.6366   -0.6429 C   0  0  1  0  0  0  0  0  0  0  0  0
    3.6757    1.4783    0.7203 C   0  0  0  0  0  0  0  0  0  0  0  0
    4.9367    0.9424    1.1320 N   0  0  0  0  0  0  0  0  0  0  0  0
    4.6274   -0.1558    2.0500 C   0  0  0  0  0  0  0  0  0  0  0  0
    3.4221   -0.8407    1.3979 C   0  0  0  0  0  0  0  0  0  0  0  0
    3.6739   -0.8518   -0.0534 C   0  0  0  0  0  0  0  0  0  0  0  0
    5.1486   -0.8587   -0.4139 C   0  0  0  0  0  0  0  0  0  0  0  0
    5.7268    0.4732    0.0032 C   0  0  0  0  0  0  0  0  0  0  0  0
   -0.4018   -0.4839   -0.9590 N   0  0  0  0  0  0  0  0  0  0  0  0
   -1.1506   -1.1673   -1.8718 C   0  0  0  0  0  0  0  0  0  0  0  0
   -1.7086   -2.4312   -1.2044 C   0  0  0  0  0  0  0  0  0  0  0  0
   -2.3755   -1.9474    0.0177 C   0  0  0  0  0  0  0  0  0  0  0  0
   -3.4263   -2.7304    0.4108 C   0  0  0  0  0  0  0  0  0  0  0  0
   -4.1835   -2.4380    1.5415 C   0  0  0  0  0  0  0  0  0  0  0  0
   -3.8453   -1.3281    2.2638 C   0  0  0  0  0  0  0  0  0  0  0  0
   -2.7868   -0.5486    1.8588 C   0  0  0  0  0  0  0  0  0  0  0  0
   -2.0867   -0.8853    0.7476 C   0  0  0  0  0  0  0  0  0  0  0  0
   -0.8810    0.1199    0.4046 C   0  0  2  0  0  0  0  0  0  0  0  0
   -1.8675    1.2669   -0.1958 C   0  0  0  0  0  0  0  0  0  0  0  0
   -1.7511    2.4998    0.3727 C   0  0  0  0  0  0  0  0  0  0  0  0
   -2.5860    3.4817   -0.1291 C   0  0  0  0  0  0  0  0  0  0  0  0
   -3.4765    3.2081   -1.1449 C   0  0  0  0  0  0  0  0  0  0  0  0
   -3.5309    1.9405   -1.6622 C   0  0  0  0  0  0  0  0  0  0  0  0
   -2.7063    0.9482   -1.1748 C   0  0  0  0  0  0  0  0  0  0  0  0
  1  2  2  0
  2  3  1  0
  4  3  1  1
  4  5  1  0
  5  6  1  0
  6  7  1  0
  7  8  1  0
  8  9  1  0
  9 10  1  0
 10 11  1  0
  2 12  1  0
 12 13  1  0
 13 14  1  0
 14 15  1  0
 15 16  2  0
 16 17  1  0
 17 18  2  0
 18 19  1  0
 19 20  2  0
 20 21  1  0
 21 22  1  6
 22 23  2  0
 23 24  1  0
 24 25  2  0
 25 26  1  0
 26 27  2  0
  9  4  1  0
 21 12  1  0
 27 22  1  0
 11  6  1  0
 20 15  1  0
M  END
>  <zinc_id>  (1) 
ZINC000003936683

>  <smiles>  (1) 
O=C(O[C@H]1CN2CCC1CC2)N1CCc2ccccc2[C@@H]1c1ccccc1

$$$$
