
     RDKit          3D

 16 16  0  0  0  0  0  0  0  0999 V2000
   -3.1649    0.7614   -1.2110 O   0  0  0  0  0  0  0  0  0  0  0  0
   -2.2307    1.0902   -0.0935 P   0  0  0  0  0  0  0  0  0  0  0  0
   -2.9261    0.4727    1.3406 O   0  0  0  0  0  0  0  0  0  0  0  0
   -1.9830    2.7509    0.0946 O   0  0  0  0  0  0  0  0  0  0  0  0
   -0.6242    0.2645   -0.3986 C   0  0  0  0  0  0  0  0  0  0  0  0
   -0.3978    0.1718   -1.7712 O   0  0  0  0  0  0  0  0  0  0  0  0
    0.4268    1.0975    0.2625 C   0  0  0  0  0  0  0  0  0  0  0  0
    1.7589    0.5459    0.0928 N   0  0  0  0  0  0  0  0  0  0  0  0
    2.6434    0.7848   -0.8928 C   0  0  0  0  0  0  0  0  0  0  0  0
    3.7995    0.0605   -0.6858 C   0  0  0  0  0  0  0  0  0  0  0  0
    3.6054   -0.6314    0.4530 N   0  0  0  0  0  0  0  0  0  0  0  0
    2.3783   -0.3294    0.9067 C   0  0  0  0  0  0  0  0  0  0  0  0
   -0.7718   -1.3892    0.2946 P   0  0  0  0  0  0  0  0  0  0  0  0
   -2.1431   -1.9287   -0.1245 O   0  0  0  0  0  0  0  0  0  0  0  0
    0.4177   -2.4363   -0.2539 O   0  0  0  0  0  0  0  0  0  0  0  0
   -0.7882   -1.2851    1.9867 O   0  0  0  0  0  0  0  0  0  0  0  0
  1  2  2  0
  2  3  1  0
  2  4  1  0
  2  5  1  0
  5  6  1  0
  5  7  1  0
  7  8  1  0
  8  9  1  0
  9 10  2  0
 10 11  1  0
 11 12  2  0
  5 13  1  0
 13 14  2  0
 13 15  1  0
 13 16  1  0
 12  8  1  0
M  END
>  <zinc_id>  (1) 
ZINC000003803652

>  <smiles>  (1) 
O=P(O)(O)C(O)(Cn1ccnc1)P(=O)(O)O

$$$$
