
     RDKit          3D

 13 13  0  0  0  0  0  0  0  0999 V2000
   -5.0188    0.0449    0.3999 C   0  0  0  0  0  0  0  0  0  0  0  0
   -3.6067    0.1265   -0.0430 C   0  0  0  0  0  0  0  0  0  0  0  0
   -3.3698    0.4786   -1.2199 O   0  0  0  0  0  0  0  0  0  0  0  0
   -2.5066   -0.1737    0.7973 N   0  0  0  0  0  0  0  0  0  0  0  0
   -1.1506   -0.0779    0.3155 C   0  0  0  0  0  0  0  0  0  0  0  0
   -0.7105    0.2741   -0.8865 N   0  0  0  0  0  0  0  0  0  0  0  0
    0.5328    0.2971   -1.1174 N   0  0  0  0  0  0  0  0  0  0  0  0
    1.3885   -0.0308   -0.1561 C   0  0  0  0  0  0  0  0  0  0  0  0
    3.1356   -0.0882   -0.1879 S   0  0  0  0  0  0  0  0  0  0  0  0
    3.6862   -1.6384   -0.6686 N   0  0  0  0  0  0  0  0  0  0  0  0
    3.6661    0.1728    1.2007 O   0  0  0  0  0  0  0  0  0  0  0  0
    3.6282    1.0003   -1.1309 O   0  0  0  0  0  0  0  0  0  0  0  0
    0.3257   -0.3854    1.1323 S   0  0  0  0  0  0  0  0  0  0  0  0
  1  2  1  0
  2  3  2  0
  2  4  1  0
  4  5  1  0
  5  6  2  0
  6  7  1  0
  7  8  2  0
  8  9  1  0
  9 10  1  0
  9 11  2  0
  9 12  2  0
  8 13  1  0
 13  5  1  0
M  END
>  <zinc_id>  (1) 
ZINC000003813042

>  <smiles>  (1) 
CC(=O)Nc1nnc(S(N)(=O)=O)s1

$$$$
