
     RDKit          3D

 16 17  0  0  0  0  0  0  0  0999 V2000
   -4.5804   -1.2225   -0.8432 C   0  0  0  0  0  0  0  0  0  0  0  0
   -3.3928   -0.4076   -0.4733 C   0  0  0  0  0  0  0  0  0  0  0  0
   -3.4022    0.9672   -0.4216 C   0  0  0  0  0  0  0  0  0  0  0  0
   -2.2493    1.6352   -0.0673 C   0  0  0  0  0  0  0  0  0  0  0  0
   -2.1590    3.1116    0.0168 C   0  0  0  0  0  0  0  0  0  0  0  0
   -1.0899    0.9194    0.2340 C   0  0  0  0  0  0  0  0  0  0  0  0
   -1.0712   -0.4522    0.1850 C   0  0  0  0  0  0  0  0  0  0  0  0
    0.0745   -1.1166    0.4844 O   0  0  0  0  0  0  0  0  0  0  0  0
    1.3023   -0.5848    0.8546 C   0  0  0  0  0  0  0  0  0  0  0  0
    1.6822    0.3387   -0.4439 C   0  0  2  0  0  0  0  0  0  0  0  0
    2.3545   -0.8986   -1.2871 C   0  0  0  0  0  0  0  0  0  0  0  0
    3.2425   -1.4038   -0.2707 N   0  0  0  0  0  0  0  0  0  0  0  0
    3.7428   -0.2825    0.4007 C   0  0  0  0  0  0  0  0  0  0  0  0
    4.7502   -0.3257    1.1714 O   0  0  0  0  0  0  0  0  0  0  0  0
    3.0203    0.8314    0.1214 O   0  0  0  0  0  0  0  0  0  0  0  0
   -2.2243   -1.1094   -0.1689 C   0  0  0  0  0  0  0  0  0  0  0  0
  1  2  1  0
  2  3  2  0
  3  4  1  0
  4  5  1  0
  4  6  2  0
  6  7  1  0
  7  8  1  0
  8  9  1  0
 10  9  1  1
 10 11  1  0
 11 12  1  0
 12 13  1  0
 13 14  2  0
 13 15  1  0
  7 16  2  0
 16  2  1  0
 15 10  1  0
M  END
>  <zinc_id>  (1) 
ZINC000000897322

>  <smiles>  (1) 
Cc1cc(C)cc(OC[C@@H]2CNC(=O)O2)c1

$$$$
