
     RDKit          3D

 15 16  0  0  0  0  0  0  0  0999 V2000
    1.9938    1.4814    0.0485 C   0  0  0  0  0  0  0  0  0  0  0  0
    0.8114    0.9919    0.6743 C   0  0  0  0  0  0  0  0  0  0  0  0
    0.8741    1.3690    2.1546 C   0  0  0  0  0  0  0  0  0  0  0  0
    0.8819   -0.6453    0.7254 C   0  0  2  0  0  0  0  0  0  0  0  0
    1.7557   -0.9520   -0.5404 C   0  0  0  0  0  0  0  0  0  0  0  0
    1.2589   -1.4006   -1.5562 O   0  0  0  0  0  0  0  0  0  0  0  0
    3.0911   -0.7115   -0.4949 O   0  0  0  0  0  0  0  0  0  0  0  0
   -0.5511   -0.9742    0.2557 N   0  0  0  0  0  0  0  0  0  0  0  0
   -1.8362   -1.5172    0.1973 C   0  0  0  0  0  0  0  0  0  0  0  0
   -2.3521   -2.5069    0.7739 O   0  0  0  0  0  0  0  0  0  0  0  0
   -2.3272   -0.5039   -0.7744 C   0  0  0  0  0  0  0  0  0  0  0  0
   -0.7844   -0.2009   -1.0283 C   0  0  1  0  0  0  0  0  0  0  0  0
   -0.6267    1.4304   -0.1096 S   0  0  0  0  0  0  0  0  0  0  0  0
   -1.7149    1.6540    0.8358 O   0  0  0  0  0  0  0  0  0  0  0  0
   -0.4745    2.4860   -1.1616 O   0  0  0  0  0  0  0  0  0  0  0  0
  1  2  1  0
  2  3  1  0
  2  4  1  0
  4  5  1  6
  5  6  2  0
  5  7  1  0
  4  8  1  0
  8  9  1  0
  9 10  2  0
  9 11  1  0
 12 11  1  1
 12 13  1  0
 13 14  2  0
 13 15  2  0
 13  2  1  0
 12  8  1  0
M  END
>  <zinc_id>  (1) 
ZINC000000897244

>  <smiles>  (1) 
CC1(C)[C@H](C(=O)O)N2C(=O)C[C@H]2S1(=O)=O

$$$$
