
     RDKit          3D

 23 25  0  0  0  0  0  0  0  0999 V2000
   -1.7561   -2.9084    0.3007 C   0  0  0  0  0  0  0  0  0  0  0  0
   -1.3608   -1.7041   -0.1190 O   0  0  0  0  0  0  0  0  0  0  0  0
   -0.1714   -1.3791   -0.6321 C   0  0  0  0  0  0  0  0  0  0  0  0
    0.7039   -2.2408   -0.7585 O   0  0  0  0  0  0  0  0  0  0  0  0
    0.1554    0.0252   -1.0799 C   0  0  2  0  0  0  0  0  0  0  0  0
    1.8831    0.0372   -0.9914 C   0  0  1  0  0  0  0  0  0  0  0  0
    2.0181    1.6319   -0.5115 C   0  0  0  0  0  0  0  0  0  0  0  0
    2.0415    1.7524    0.7850 C   0  0  0  0  0  0  0  0  0  0  0  0
    1.8544    0.3079    1.5575 C   0  0  1  0  0  0  0  0  0  0  0  0
    0.1836    0.1619    1.4677 C   0  0  0  0  0  0  0  0  0  0  0  0
   -0.1623    1.0480    0.1879 C   0  0  2  0  0  0  0  0  0  0  0  0
   -1.6854    0.9269    0.1939 C   0  0  0  0  0  0  0  0  0  0  0  0
   -2.4113    0.9876   -0.9689 C   0  0  0  0  0  0  0  0  0  0  0  0
   -3.8067    0.8982   -0.9554 C   0  0  0  0  0  0  0  0  0  0  0  0
   -4.4914    0.7474    0.2225 C   0  0  0  0  0  0  0  0  0  0  0  0
   -6.6212    0.6101    0.2377 I   0  0  0  0  0  0  0  0  0  0  0  0
   -3.7700    0.6862    1.3885 C   0  0  0  0  0  0  0  0  0  0  0  0
   -2.3668    0.7761    1.3718 C   0  0  0  0  0  0  0  0  0  0  0  0
    2.0819   -0.6189    0.3565 N   0  0  0  0  0  0  0  0  0  0  0  0
    3.3070   -1.2156    0.3597 C   0  0  0  0  0  0  0  0  0  0  0  0
    4.5823   -0.5189    0.3294 C   0  0  0  0  0  0  0  0  0  0  0  0
    4.8854    0.3249   -0.8613 C   0  0  0  0  0  0  0  0  0  0  0  0
    4.9067   -0.3362   -2.0565 F   0  0  0  0  0  0  0  0  0  0  0  0
  1  2  1  0
  2  3  1  0
  3  4  2  0
  5  3  1  1
  5  6  1  0
  6  7  1  1
  7  8  1  0
  9  8  1  6
  9 10  1  0
 10 11  1  0
 11 12  1  1
 12 13  2  0
 13 14  1  0
 14 15  2  0
 15 16  1  0
 15 17  1  0
 17 18  2  0
  9 19  1  0
 19 20  1  0
 20 21  1  0
 21 22  1  0
 22 23  1  0
 11  5  1  0
 18 12  1  0
 19  6  1  0
M  END
>  <zinc_id>  (1) 
ZINC000003972949

>  <smiles>  (1) 
COC(=O)[C@H]1[C@@H](c2ccc(I)cc2)C[C@@H]2CC[C@H]1N2CCCF

$$$$
