
     RDKit          3D

 22 25  0  0  0  0  0  0  0  0999 V2000
   -4.4873   -1.0359   -2.1360 C   0  0  0  0  0  0  0  0  0  0  0  0
   -4.0444   -0.4205   -1.2149 C   0  0  0  0  0  0  0  0  0  0  0  0
   -3.4893    0.3279   -0.0981 C   0  0  2  0  0  0  0  0  0  0  0  0
   -4.2848    0.2513    1.0487 O   0  0  0  0  0  0  0  0  0  0  0  0
   -3.3724    1.8135   -0.3951 C   0  0  0  0  0  0  0  0  0  0  0  0
   -1.9485    2.1771    0.0209 C   0  0  0  0  0  0  0  0  0  0  0  0
   -1.3590    0.9203   -0.7932 C   0  0  1  0  0  0  0  0  0  0  0  0
    0.0801    0.8109    0.0339 C   0  0  2  0  0  0  0  0  0  0  0  0
    0.8463    1.8957   -0.8451 C   0  0  0  0  0  0  0  0  0  0  0  0
    2.1097    1.9544    0.0432 C   0  0  0  0  0  0  0  0  0  0  0  0
    2.6184    0.5453    0.0025 C   0  0  0  0  0  0  0  0  0  0  0  0
    3.9127    0.3453    0.4756 C   0  0  0  0  0  0  0  0  0  0  0  0
    4.5260   -0.8921    0.5045 C   0  0  0  0  0  0  0  0  0  0  0  0
    5.8377   -1.0293    0.9952 O   0  0  0  0  0  0  0  0  0  0  0  0
    3.8155   -1.9675    0.0423 C   0  0  0  0  0  0  0  0  0  0  0  0
    2.5019   -1.7923   -0.4425 C   0  0  0  0  0  0  0  0  0  0  0  0
    1.9520   -0.5354   -0.4433 C   0  0  0  0  0  0  0  0  0  0  0  0
    0.5062   -0.4739   -0.9987 C   0  0  1  0  0  0  0  0  0  0  0  0
   -0.1643   -1.5549   -0.0031 C   0  0  0  0  0  0  0  0  0  0  0  0
   -1.6753   -1.4350   -0.2830 C   0  0  0  0  0  0  0  0  0  0  0  0
   -2.1000   -0.1247    0.2165 C   0  0  2  0  0  0  0  0  0  0  0  0
   -1.7808    0.2200    1.6056 C   0  0  0  0  0  0  0  0  0  0  0  0
  1  2  3  0
  2  3  1  0
  3  4  1  1
  3  5  1  0
  5  6  1  0
  7  6  1  1
  7  8  1  0
  8  9  1  6
  9 10  1  0
 10 11  1  0
 11 12  2  0
 12 13  1  0
 13 14  1  0
 13 15  2  0
 15 16  1  0
 16 17  2  0
 17 18  1  0
 18 19  1  1
 19 20  1  0
 20 21  1  0
 21 22  1  1
 21  3  1  0
 21  7  1  0
 18  8  1  0
 17 11  1  0
M  END
>  <zinc_id>  (1) 
ZINC000003812897

>  <smiles>  (1) 
C#C[C@]1(O)CC[C@H]2[C@@H]3CCc4cc(O)ccc4[C@H]3CC[C@@]21C

$$$$
