
     RDKit          3D

 32 33  0  0  0  0  0  0  0  0999 V2000
   -7.2836    3.1754    0.4600 O   0  0  0  0  0  0  0  0  0  0  0  0
   -7.2656    2.9619    0.3095 C   0  0  0  0  0  0  0  0  0  0  0  0
   -6.8777    1.5750   -0.1120 C   0  0  0  0  0  0  0  0  0  0  0  0
   -6.1268    0.7857    0.7362 C   0  0  0  0  0  0  0  0  0  0  0  0
   -5.8094   -0.4785    0.2771 C   0  0  0  0  0  0  0  0  0  0  0  0
   -4.9357   -1.3618    1.2978 C   0  0  1  0  0  0  0  0  0  0  0  0
   -5.7724   -2.6439    1.1208 O   0  0  0  0  0  0  0  0  0  0  0  0
   -3.8555   -1.8231    0.1360 C   0  0  0  0  0  0  0  0  0  0  0  0
   -2.9562   -0.6835    0.1739 N   0  0  0  0  0  0  0  0  0  0  0  0
   -2.2735   -0.7510    1.4765 C   0  0  0  0  0  0  0  0  0  0  0  0
   -1.3836   -1.9956    1.3835 C   0  0  0  0  0  0  0  0  0  0  0  0
   -0.4438   -1.7475    0.2225 C   0  0  0  0  0  0  0  0  0  0  0  0
    0.3531   -0.5011    0.5445 C   0  0  0  0  0  0  0  0  0  0  0  0
    1.3276   -0.1741   -0.5802 C   0  0  0  0  0  0  0  0  0  0  0  0
    2.2693   -1.3455   -0.7453 C   0  0  0  0  0  0  0  0  0  0  0  0
    2.9820   -1.5660    0.4433 O   0  0  0  0  0  0  0  0  0  0  0  0
    3.8519   -2.6109    0.3827 C   0  0  0  0  0  0  0  0  0  0  0  0
    4.9625   -2.5595   -0.5783 C   0  0  0  0  0  0  0  0  0  0  0  0
    5.8575   -1.5326   -0.4308 O   0  0  0  0  0  0  0  0  0  0  0  0
    5.3124   -0.2922   -0.5390 C   0  0  0  0  0  0  0  0  0  0  0  0
    6.3704    0.7452   -0.3720 C   0  0  0  0  0  0  0  0  0  0  0  0
    6.0518    2.0792   -0.4419 C   0  0  0  0  0  0  0  0  0  0  0  0
    4.3802    2.5760   -0.7270 Cl  0  0  0  0  0  0  0  0  0  0  0  0
    6.9998    3.0625   -0.2956 C   0  0  0  0  0  0  0  0  0  0  0  0
    8.3031    2.6787   -0.0727 C   0  0  0  0  0  0  0  0  0  0  0  0
    8.6393    1.3519    0.0002 C   0  0  0  0  0  0  0  0  0  0  0  0
    7.6902    0.3730   -0.1464 C   0  0  0  0  0  0  0  0  0  0  0  0
    8.1061   -1.3443   -0.0557 Cl  0  0  0  0  0  0  0  0  0  0  0  0
   -6.1846   -0.9414   -0.8999 C   0  0  0  0  0  0  0  0  0  0  0  0
   -6.9377   -0.1281   -1.7316 C   0  0  0  0  0  0  0  0  0  0  0  0
   -7.2922    1.1443   -1.3413 C   0  0  0  0  0  0  0  0  0  0  0  0
   -8.0590    1.9718   -2.1876 O   0  0  0  0  0  0  0  0  0  0  0  0
  1  2  1  0
  2  3  1  0
  3  4  2  0
  4  5  1  0
  5  6  1  0
  6  7  1  6
  6  8  1  0
  8  9  1  0
  9 10  1  0
 10 11  1  0
 11 12  1  0
 12 13  1  0
 13 14  1  0
 14 15  1  0
 15 16  1  0
 16 17  1  0
 17 18  1  0
 18 19  1  0
 19 20  1  0
 20 21  1  0
 21 22  2  0
 22 23  1  0
 22 24  1  0
 24 25  2  0
 25 26  1  0
 26 27  2  0
 27 28  1  0
  5 29  2  0
 29 30  1  0
 30 31  2  0
 31 32  1  0
 31  3  1  0
 27 21  1  0
M  END
>  <zinc_id>  (1) 
ZINC000003991624

>  <smiles>  (1) 
OCc1cc([C@@H](O)CNCCCCCCOCCOCc2c(Cl)cccc2Cl)ccc1O

$$$$
