
     RDKit          3D

 15 16  0  0  0  0  0  0  0  0999 V2000
   -4.2993   -1.3734    0.3098 N   0  0  0  0  0  0  0  0  0  0  0  0
   -3.0074   -0.7723    0.0952 C   0  0  0  0  0  0  0  0  0  0  0  0
   -2.6801    0.4304    0.6955 C   0  0  0  0  0  0  0  0  0  0  0  0
   -1.4614    1.0429    0.5220 C   0  0  0  0  0  0  0  0  0  0  0  0
   -1.0280    2.5651    1.2823 Cl  0  0  0  0  0  0  0  0  0  0  0  0
   -0.5040    0.4356   -0.2923 C   0  0  0  0  0  0  0  0  0  0  0  0
    0.7713    1.0702   -0.4771 N   0  0  0  0  0  0  0  0  0  0  0  0
    1.8603    0.5448   -0.0526 C   0  0  0  0  0  0  0  0  0  0  0  0
    3.1369    1.1319   -0.2126 N   0  0  0  0  0  0  0  0  0  0  0  0
    4.1785    0.2519    0.2638 C   0  0  0  0  0  0  0  0  0  0  0  0
    3.4803   -0.9805    0.7522 C   0  0  0  0  0  0  0  0  0  0  0  0
    2.0569   -0.6796    0.6546 N   0  0  0  0  0  0  0  0  0  0  0  0
   -0.8174   -0.7666   -0.8989 C   0  0  0  0  0  0  0  0  0  0  0  0
    0.3734   -1.5388   -1.9394 Cl  0  0  0  0  0  0  0  0  0  0  0  0
   -2.0599   -1.3616   -0.7027 C   0  0  0  0  0  0  0  0  0  0  0  0
  1  2  1  0
  2  3  2  0
  3  4  1  0
  4  5  1  0
  4  6  2  0
  6  7  1  0
  7  8  2  3
  8  9  1  0
  9 10  1  0
 10 11  1  0
 11 12  1  0
  6 13  1  0
 13 14  1  0
 13 15  2  0
 15  2  1  0
 12  8  1  0
M  END
>  <zinc_id>  (1) 
ZINC000000020231

>  <smiles>  (1) 
Nc1cc(Cl)c(N=C2NCCN2)c(Cl)c1

$$$$
