
     RDKit          3D

 29 32  0  0  0  0  0  0  0  0999 V2000
   -0.0003    1.2797   -0.9325 O   0  0  0  0  0  0  0  0  0  0  0  0
   -0.9438    0.1406   -0.9122 C   0  0  1  0  0  0  0  0  0  0  0  0
   -0.6609   -0.3766    0.5383 C   0  0  0  0  0  0  0  0  0  0  0  0
    0.6390   -0.8382    0.6434 N   0  0  0  0  0  0  0  0  0  0  0  0
    0.9983   -2.0195   -0.0334 C   0  0  0  0  0  0  0  0  0  0  0  0
    1.1458   -1.6632   -1.5726 C   0  0  2  0  0  0  0  0  0  0  0  0
    1.2994   -3.1342   -2.0296 O   0  0  0  0  0  0  0  0  0  0  0  0
    2.8449   -1.4259   -1.6424 C   0  0  2  0  0  0  0  0  0  0  0  0
    3.2680   -2.1394   -0.2714 C   0  0  0  0  0  0  0  0  0  0  0  0
    4.7687   -1.9416   -0.3037 C   0  0  0  0  0  0  0  0  0  0  0  0
    5.0109   -0.4757   -0.0747 C   0  0  0  0  0  0  0  0  0  0  0  0
    6.1159    0.0113    0.5323 C   0  0  0  0  0  0  0  0  0  0  0  0
    6.3424    1.3584    0.7451 C   0  0  0  0  0  0  0  0  0  0  0  0
    7.4565    1.8154    1.3554 F   0  0  0  0  0  0  0  0  0  0  0  0
    5.3781    2.2318    0.3070 C   0  0  0  0  0  0  0  0  0  0  0  0
    4.2606    1.7482   -0.3066 C   0  0  0  0  0  0  0  0  0  0  0  0
    4.0419    0.4089   -0.5145 C   0  0  0  0  0  0  0  0  0  0  0  0
    2.8794   -0.0323   -1.1483 O   0  0  0  0  0  0  0  0  0  0  0  0
   -2.3816    1.0152   -0.6664 C   0  0  2  0  0  0  0  0  0  0  0  0
   -2.2974    1.2287    0.9189 C   0  0  0  0  0  0  0  0  0  0  0  0
   -3.6037    1.3518    1.5092 C   0  0  0  0  0  0  0  0  0  0  0  0
   -4.7538    0.7410    0.8800 C   0  0  0  0  0  0  0  0  0  0  0  0
   -5.9972    0.9802    1.4055 C   0  0  0  0  0  0  0  0  0  0  0  0
   -7.0929    0.3998    0.8077 C   0  0  0  0  0  0  0  0  0  0  0  0
   -8.3006    0.6516    1.3442 F   0  0  0  0  0  0  0  0  0  0  0  0
   -6.8834   -0.4018   -0.3014 C   0  0  0  0  0  0  0  0  0  0  0  0
   -5.6638   -0.6627   -0.8518 C   0  0  0  0  0  0  0  0  0  0  0  0
   -4.5763   -0.0598   -0.2225 C   0  0  0  0  0  0  0  0  0  0  0  0
   -3.2943   -0.1919   -0.6101 O   0  0  0  0  0  0  0  0  0  0  0  0
  2  1  1  1
  2  3  1  0
  3  4  1  0
  4  5  1  0
  5  6  1  0
  6  7  1  6
  6  8  1  0
  8  9  1  1
  9 10  1  0
 10 11  1  0
 11 12  2  0
 12 13  1  0
 13 14  1  0
 13 15  2  0
 15 16  1  0
 16 17  2  0
 17 18  1  0
  2 19  1  0
 19 20  1  1
 20 21  1  0
 21 22  1  0
 22 23  2  0
 23 24  1  0
 24 25  1  0
 24 26  2  0
 26 27  1  0
 27 28  2  0
 28 29  1  0
 18  8  1  0
 29 19  1  0
 17 11  1  0
 28 22  1  0
M  END
>  <zinc_id>  (1) 
ZINC000005844792

>  <smiles>  (1) 
O[C@@H](CNC[C@H](O)[C@@H]1CCc2cc(F)ccc2O1)[C@@H]1CCc2cc(F)ccc2O1

$$$$
