
     RDKit          3D

 24 26  0  0  0  0  0  0  0  0999 V2000
   -3.4399   -1.4003   -1.5959 C   0  0  0  0  0  0  0  0  0  0  0  0
   -2.8288   -1.7363   -0.0995 C   0  0  2  0  0  0  0  0  0  0  0  0
   -4.2689   -1.5852    0.6662 C   0  0  0  0  0  0  0  0  0  0  0  0
   -4.6536   -0.2094    0.3746 C   0  0  0  0  0  0  0  0  0  0  0  0
   -5.8907    0.4384    0.3306 C   0  0  0  0  0  0  0  0  0  0  0  0
   -5.9637    1.7631    0.0297 C   0  0  0  0  0  0  0  0  0  0  0  0
   -4.8421    2.5288   -0.2447 C   0  0  0  0  0  0  0  0  0  0  0  0
   -3.6404    1.8629   -0.1943 C   0  0  0  0  0  0  0  0  0  0  0  0
   -3.5447    0.5218    0.1086 C   0  0  0  0  0  0  0  0  0  0  0  0
   -2.3714   -0.2566    0.1827 N   0  0  0  0  0  0  0  0  0  0  0  0
   -1.0584    0.0704    0.4454 N   0  0  0  0  0  0  0  0  0  0  0  0
   -0.0110   -0.2352   -0.4411 C   0  0  0  0  0  0  0  0  0  0  0  0
   -0.2660   -0.8229   -1.5094 O   0  0  0  0  0  0  0  0  0  0  0  0
    1.3642    0.1582   -0.0561 C   0  0  0  0  0  0  0  0  0  0  0  0
    1.5107    1.2370    0.7979 C   0  0  0  0  0  0  0  0  0  0  0  0
    2.7706    1.5847    1.1907 C   0  0  0  0  0  0  0  0  0  0  0  0
    3.8483    0.8533    0.7279 C   0  0  0  0  0  0  0  0  0  0  0  0
    5.4620    1.3164    1.2436 Cl  0  0  0  0  0  0  0  0  0  0  0  0
    3.7279   -0.2189   -0.1178 C   0  0  0  0  0  0  0  0  0  0  0  0
    5.1048   -1.1164   -0.6477 S   0  0  0  0  0  0  0  0  0  0  0  0
    5.8640   -1.8170    0.7396 N   0  0  0  0  0  0  0  0  0  0  0  0
    4.6428   -2.1863   -1.5886 O   0  0  0  0  0  0  0  0  0  0  0  0
    6.0529   -0.1820   -1.3305 O   0  0  0  0  0  0  0  0  0  0  0  0
    2.4314   -0.5686   -0.5173 C   0  0  0  0  0  0  0  0  0  0  0  0
  2  1  1  6
  2  3  1  0
  3  4  1  0
  4  5  2  0
  5  6  1  0
  6  7  2  0
  7  8  1  0
  8  9  2  0
  9 10  1  0
 10 11  1  0
 11 12  1  0
 12 13  2  0
 12 14  1  0
 14 15  2  0
 15 16  1  0
 16 17  2  0
 17 18  1  0
 17 19  1  0
 19 20  1  0
 20 21  1  0
 20 22  2  0
 20 23  2  0
 19 24  2  0
 10  2  1  0
 24 14  1  0
  9  4  1  0
M  END
>  <zinc_id>  (1) 
ZINC000000643114

>  <smiles>  (1) 
C[C@@H]1Cc2ccccc2N1NC(=O)c1ccc(Cl)c(S(N)(=O)=O)c1

$$$$
