
     RDKit          3D

 27 30  0  0  0  0  0  0  0  0999 V2000
   -3.4158    2.8248    0.3983 C   0  0  0  0  0  0  0  0  0  0  0  0
   -3.2097    1.6546    0.2162 C   0  0  0  0  0  0  0  0  0  0  0  0
   -2.9720    0.2226   -0.0271 C   0  0  2  0  0  0  0  0  0  0  0  0
   -3.9031   -0.2413   -0.9959 O   0  0  0  0  0  0  0  0  0  0  0  0
   -5.2449   -0.1506   -0.7319 C   0  0  0  0  0  0  0  0  0  0  0  0
   -6.3025   -0.6159   -1.6975 C   0  0  0  0  0  0  0  0  0  0  0  0
   -5.6165    0.3347    0.3476 O   0  0  0  0  0  0  0  0  0  0  0  0
   -3.1147   -0.5849    1.2578 C   0  0  0  0  0  0  0  0  0  0  0  0
   -1.7397   -1.2158    1.5009 C   0  0  0  0  0  0  0  0  0  0  0  0
   -0.9363    0.0888    1.0357 C   0  0  1  0  0  0  0  0  0  0  0  0
    0.4815   -0.6702    0.5763 C   0  0  2  0  0  0  0  0  0  0  0  0
    1.0081   -0.8924    2.0335 C   0  0  0  0  0  0  0  0  0  0  0  0
    2.3102   -0.3646    2.3237 C   0  0  0  0  0  0  0  0  0  0  0  0
    3.1869   -0.2609    1.2107 C   0  0  0  0  0  0  0  0  0  0  0  0
    4.4844   -0.4744    1.0886 C   0  0  0  0  0  0  0  0  0  0  0  0
    5.1124   -0.2658   -0.2444 C   0  0  0  0  0  0  0  0  0  0  0  0
    5.8458   -1.1076   -0.8364 N   0  0  0  0  0  0  0  0  0  0  0  0
    6.3770   -0.7989   -2.0810 O   0  0  0  0  0  0  0  0  0  0  0  0
    4.7892    1.0822   -0.8392 C   0  0  0  0  0  0  0  0  0  0  0  0
    3.4694    1.5876   -0.2125 C   0  0  0  0  0  0  0  0  0  0  0  0
    2.6366    0.1930   -0.2223 C   0  0  2  0  0  0  0  0  0  0  0  0
    1.2074    0.8767    0.3888 C   0  0  1  0  0  0  0  0  0  0  0  0
    0.5863    1.0871   -1.0708 C   0  0  0  0  0  0  0  0  0  0  0  0
   -0.8967    1.3122   -0.9512 C   0  0  0  0  0  0  0  0  0  0  0  0
   -1.5572    0.0387   -0.4576 C   0  0  2  0  0  0  0  0  0  0  0  0
   -1.2077   -1.1511   -1.1898 C   0  0  0  0  0  0  0  0  0  0  0  0
   -1.3787   -2.5083   -0.6801 C   0  0  0  0  0  0  0  0  0  0  0  0
  1  2  3  0
  3  2  1  1
  3  4  1  0
  4  5  1  0
  5  6  1  0
  5  7  2  0
  3  8  1  0
  8  9  1  0
 10  9  1  1
 10 11  1  0
 11 12  1  1
 12 13  1  0
 13 14  1  0
 14 15  2  0
 15 16  1  0
 16 17  2  0
 17 18  1  0
 16 19  1  0
 19 20  1  0
 21 20  1  1
 21 22  1  0
 22 23  1  6
 23 24  1  0
 24 25  1  0
 25 26  1  6
 26 27  1  0
 25  3  1  0
 25 10  1  0
 22 11  1  0
 21 14  1  0
M  END
>  <zinc_id>  (1) 
ZINC000003938695

>  <smiles>  (1) 
C#C[C@]1(OC(C)=O)CC[C@H]2[C@@H]3CCC4=C/C(=N/O)CC[C@@H]4[C@H]3CC[C@@]21CC

$$$$
