
     RDKit          3D

 10  9  0  0  0  0  0  0  0  0999 V2000
    1.7239   -1.1733    0.6566 F   0  0  0  0  0  0  0  0  0  0  0  0
    1.7921   -0.2113    0.3689 C   0  0  0  0  0  0  0  0  0  0  0  0
    3.0514    0.3843    0.1172 F   0  0  0  0  0  0  0  0  0  0  0  0
    0.8406    0.6935    0.1598 O   0  0  0  0  0  0  0  0  0  0  0  0
   -0.1111    0.3513   -0.8817 C   0  0  2  0  0  0  0  0  0  0  0  0
   -0.9578    2.0995   -0.8206 Cl  0  0  0  0  0  0  0  0  0  0  0  0
   -1.2719   -0.3684   -0.0587 C   0  0  0  0  0  0  0  0  0  0  0  0
   -2.1947   -0.6489   -1.1111 F   0  0  0  0  0  0  0  0  0  0  0  0
   -0.9568   -1.5857    0.4086 F   0  0  0  0  0  0  0  0  0  0  0  0
   -1.9158    0.4591    0.7714 F   0  0  0  0  0  0  0  0  0  0  0  0
  1  2  1  0
  2  3  1  0
  2  4  1  0
  4  5  1  0
  5  6  1  1
  5  7  1  0
  7  8  1  0
  7  9  1  0
  7 10  1  0
M  END
>  <zinc_id>  (1) 
ZINC000003872952

>  <smiles>  (1) 
FC(F)O[C@H](Cl)C(F)(F)F

$$$$
