
     RDKit          3D

 19 21  0  0  0  0  0  0  0  0999 V2000
    0.5171   -1.1729    1.9736 O   0  0  0  0  0  0  0  0  0  0  0  0
    0.8135   -0.4630    0.9772 C   0  0  0  0  0  0  0  0  0  0  0  0
    2.1987   -0.3833    0.4791 C   0  0  0  0  0  0  0  0  0  0  0  0
    3.4055   -0.9388    0.8481 C   0  0  0  0  0  0  0  0  0  0  0  0
    4.5684   -0.6607    0.1592 C   0  0  0  0  0  0  0  0  0  0  0  0
    4.5520    0.1870   -0.9250 C   0  0  0  0  0  0  0  0  0  0  0  0
    3.3442    0.7423   -1.2938 C   0  0  0  0  0  0  0  0  0  0  0  0
    2.1748    0.4709   -0.6114 C   0  0  0  0  0  0  0  0  0  0  0  0
    0.7763    0.9201   -0.7888 C   0  0  0  0  0  0  0  0  0  0  0  0
    0.4423    1.7073   -1.7038 O   0  0  0  0  0  0  0  0  0  0  0  0
   -0.0404    0.3305    0.2019 N   0  0  0  0  0  0  0  0  0  0  0  0
   -1.5225    0.5193    0.3928 C   0  0  2  0  0  0  0  0  0  0  0  0
   -1.8479   -0.8134    1.2617 C   0  0  0  0  0  0  0  0  0  0  0  0
   -3.3396   -0.7095    1.4935 C   0  0  0  0  0  0  0  0  0  0  0  0
   -4.0541    0.0884    0.4654 C   0  0  0  0  0  0  0  0  0  0  0  0
   -5.0779    0.7656    0.7342 O   0  0  0  0  0  0  0  0  0  0  0  0
   -3.4734    0.0138   -0.8443 N   0  0  0  0  0  0  0  0  0  0  0  0
   -2.0631   -0.0873   -0.9666 C   0  0  0  0  0  0  0  0  0  0  0  0
   -1.3740   -0.5162   -1.8529 O   0  0  0  0  0  0  0  0  0  0  0  0
  1  2  2  0
  2  3  1  0
  3  4  2  0
  4  5  1  0
  5  6  2  0
  6  7  1  0
  7  8  2  0
  8  9  1  0
  9 10  2  0
  9 11  1  0
 12 11  1  6
 12 13  1  0
 13 14  1  0
 14 15  1  0
 15 16  2  0
 15 17  1  0
 17 18  1  0
 18 19  2  0
 11  2  1  0
 18 12  1  0
  8  3  1  0
M  END
>  <zinc_id>  (1) 
ZINC000001530948

>  <smiles>  (1) 
O=C1CC[C@@H](N2C(=O)c3ccccc3C2=O)C(=O)N1

$$$$
