
     RDKit          3D

 22 23  0  0  0  0  0  0  0  0999 V2000
    4.2926    1.4499    0.9693 C   0  0  0  0  0  0  0  0  0  0  0  0
    4.8882    1.2542   -0.3119 C   0  0  0  0  0  0  0  0  0  0  0  0
    5.4512    2.6010   -0.8061 C   0  0  0  0  0  0  0  0  0  0  0  0
    6.0505    0.2648   -0.1374 C   0  0  0  0  0  0  0  0  0  0  0  0
    4.0867    0.7679   -1.3854 N   0  0  0  0  0  0  0  0  0  0  0  0
    3.5909   -0.5323   -1.1355 C   0  0  0  0  0  0  0  0  0  0  0  0
    2.4852   -0.2964    0.0881 C   0  0  2  0  0  0  0  0  0  0  0  0
    2.1364   -1.7773    0.1228 O   0  0  0  0  0  0  0  0  0  0  0  0
    1.3269    0.2215   -0.9371 C   0  0  0  0  0  0  0  0  0  0  0  0
    0.1038    0.0635   -0.6076 O   0  0  0  0  0  0  0  0  0  0  0  0
   -0.8972   -0.8079   -0.3156 C   0  0  0  0  0  0  0  0  0  0  0  0
   -0.7806   -2.1977   -0.3186 C   0  0  0  0  0  0  0  0  0  0  0  0
   -1.7974   -3.0519   -0.0264 C   0  0  0  0  0  0  0  0  0  0  0  0
   -3.0095   -2.4983    0.2890 C   0  0  0  0  0  0  0  0  0  0  0  0
   -3.2135   -1.1277    0.3161 C   0  0  0  0  0  0  0  0  0  0  0  0
   -2.1775   -0.3352    0.0205 C   0  0  0  0  0  0  0  0  0  0  0  0
   -2.2936    1.1422    0.0284 C   0  0  0  0  0  0  0  0  0  0  0  0
   -3.8722    1.3733   -0.2818 C   0  0  2  0  0  0  0  0  0  0  0  0
   -3.8475    2.8112    0.2388 O   0  0  0  0  0  0  0  0  0  0  0  0
   -4.5781    0.7911    1.1832 C   0  0  2  0  0  0  0  0  0  0  0  0
   -3.3609    0.6570    2.0472 O   0  0  0  0  0  0  0  0  0  0  0  0
   -4.5843   -0.7728    0.6766 C   0  0  0  0  0  0  0  0  0  0  0  0
  1  2  1  0
  2  3  1  0
  2  4  1  0
  2  5  1  0
  5  6  1  0
  6  7  1  0
  7  8  1  6
  7  9  1  0
  9 10  1  0
 10 11  1  0
 11 12  2  0
 12 13  1  0
 13 14  2  0
 14 15  1  0
 15 16  2  0
 16 17  1  0
 17 18  1  0
 18 19  1  1
 18 20  1  0
 20 21  1  1
 20 22  1  0
 16 11  1  0
 22 15  1  0
M  END
>  <zinc_id>  (1) 
ZINC000003831165

>  <smiles>  (1) 
CC(C)(C)NC[C@H](O)COc1cccc2c1C[C@H](O)[C@H](O)C2

$$$$
