
     RDKit          3D

 27 29  0  0  0  0  0  0  0  0999 V2000
   -4.2183    1.0288   -2.3620 N   0  0  0  0  0  0  0  0  0  0  0  0
   -4.3396    0.2210   -1.4156 S   0  0  0  0  0  0  0  0  0  0  0  0
   -5.5140    0.7524   -0.5840 O   0  0  0  0  0  0  0  0  0  0  0  0
   -4.8434   -0.9946   -2.0897 O   0  0  0  0  0  0  0  0  0  0  0  0
   -2.8785    0.1167   -0.5371 C   0  0  0  0  0  0  0  0  0  0  0  0
   -1.7655    0.8206   -0.9434 C   0  0  0  0  0  0  0  0  0  0  0  0
   -0.6031    0.7777   -0.3095 C   0  0  0  0  0  0  0  0  0  0  0  0
   -0.4147    0.0186    0.8157 C   0  0  0  0  0  0  0  0  0  0  0  0
   -1.4605   -0.6995    1.2747 C   0  0  0  0  0  0  0  0  0  0  0  0
   -2.6962   -0.6627    0.6133 C   0  0  0  0  0  0  0  0  0  0  0  0
   -3.8280   -1.4336    1.1127 C   0  0  0  0  0  0  0  0  0  0  0  0
   -4.3544   -2.3770    0.2943 F   0  0  0  0  0  0  0  0  0  0  0  0
   -4.7725   -0.6807    1.7880 F   0  0  0  0  0  0  0  0  0  0  0  0
   -3.3159   -2.2327    2.1677 F   0  0  0  0  0  0  0  0  0  0  0  0
    0.8988    0.1339    1.3183 N   0  0  0  0  0  0  0  0  0  0  0  0
    2.0729   -0.4903    0.5033 C   0  0  2  0  0  0  0  0  0  0  0  0
    3.2182    0.4897    1.2030 C   0  0  0  0  0  0  0  0  0  0  0  0
    4.4893    0.0791    0.5701 C   0  0  0  0  0  0  0  0  0  0  0  0
    5.2566   -0.9150    1.1199 C   0  0  0  0  0  0  0  0  0  0  0  0
    6.4303   -1.2789    0.5164 C   0  0  0  0  0  0  0  0  0  0  0  0
    6.8438   -0.6567   -0.6334 C   0  0  0  0  0  0  0  0  0  0  0  0
    6.0661    0.3373   -1.1737 C   0  0  0  0  0  0  0  0  0  0  0  0
    4.8776    0.7337   -0.5974 C   0  0  0  0  0  0  0  0  0  0  0  0
    1.9948    0.3727   -0.7823 N   0  0  0  0  0  0  0  0  0  0  0  0
    0.9037    1.6182   -0.6975 S   0  0  0  0  0  0  0  0  0  0  0  0
    1.0991    2.5955    0.4256 O   0  0  0  0  0  0  0  0  0  0  0  0
    0.8534    2.3258   -1.9698 O   0  0  0  0  0  0  0  0  0  0  0  0
  1  2  1  0
  2  3  2  0
  2  4  2  0
  2  5  1  0
  5  6  2  0
  6  7  1  0
  7  8  2  0
  8  9  1  0
  9 10  2  0
 10 11  1  0
 11 12  1  0
 11 13  1  0
 11 14  1  0
  8 15  1  0
 15 16  1  0
 16 17  1  1
 17 18  1  0
 18 19  2  0
 19 20  1  0
 20 21  2  0
 21 22  1  0
 22 23  2  0
 16 24  1  0
 24 25  1  0
 25 26  2  0
 25 27  2  0
 10  5  1  0
 23 18  1  0
 25  7  1  0
M  END
>  <zinc_id>  (1) 
ZINC000000897222

>  <smiles>  (1) 
NS(=O)(=O)c1cc2c(cc1C(F)(F)F)N[C@H](Cc1ccccc1)NS2(=O)=O

$$$$
