
     RDKit          3D

 21 21  0  0  0  0  0  0  0  0999 V2000
    5.6820    1.4556    0.3819 C   0  0  0  0  0  0  0  0  0  0  0  0
    6.3740    0.1394    0.4474 C   0  0  0  0  0  0  0  0  0  0  0  0
    5.6765   -0.9159   -0.2901 C   0  0  0  0  0  0  0  0  0  0  0  0
    4.4528   -1.2919    0.0388 O   0  0  0  0  0  0  0  0  0  0  0  0
    3.1824   -0.8275    0.1322 C   0  0  0  0  0  0  0  0  0  0  0  0
    2.7591    0.4414   -0.1692 C   0  0  0  0  0  0  0  0  0  0  0  0
    1.4750    0.8802   -0.0683 C   0  0  0  0  0  0  0  0  0  0  0  0
    0.4713    0.0248    0.3673 C   0  0  0  0  0  0  0  0  0  0  0  0
   -0.9064    0.4773    0.4785 C   0  0  0  0  0  0  0  0  0  0  0  0
   -1.2204    1.6482    0.1835 O   0  0  0  0  0  0  0  0  0  0  0  0
   -1.8665   -0.3876    0.9088 O   0  0  0  0  0  0  0  0  0  0  0  0
   -3.1641   -0.3485    1.1060 C   0  0  0  0  0  0  0  0  0  0  0  0
   -4.2888   -0.3092    0.2477 C   0  0  0  0  0  0  0  0  0  0  0  0
   -4.3888    0.7693   -0.6790 N   0  0  0  0  0  0  0  0  0  0  0  0
   -5.7931    0.8570   -1.1863 C   0  0  0  0  0  0  0  0  0  0  0  0
   -6.6283    1.3036    0.0080 C   0  0  0  0  0  0  0  0  0  0  0  0
   -3.5940    0.4171   -1.9083 C   0  0  0  0  0  0  0  0  0  0  0  0
   -3.7573    1.6204   -2.8140 C   0  0  0  0  0  0  0  0  0  0  0  0
    0.8606   -1.2559    0.6787 C   0  0  0  0  0  0  0  0  0  0  0  0
    2.1515   -1.6870    0.5738 C   0  0  0  0  0  0  0  0  0  0  0  0
    2.5225   -3.0109    0.9015 N   0  0  0  0  0  0  0  0  0  0  0  0
  1  2  1  0
  2  3  1  0
  3  4  1  0
  4  5  1  0
  5  6  2  0
  6  7  1  0
  7  8  2  0
  8  9  1  0
  9 10  2  0
  9 11  1  0
 11 12  1  0
 12 13  1  0
 13 14  1  0
 14 15  1  0
 15 16  1  0
 14 17  1  0
 17 18  1  0
  8 19  1  0
 19 20  2  0
 20 21  1  0
 20  5  1  0
M  END
>  <zinc_id>  (1) 
ZINC000001530762

>  <smiles>  (1) 
CCCOc1ccc(C(=O)OCCN(CC)CC)cc1N

$$$$
