
     RDKit          3D

 36 40  0  0  0  0  0  0  0  0999 V2000
   -3.0461   -3.1960    2.9833 C   0  0  0  0  0  0  0  0  0  0  0  0
   -2.4331   -2.2111    2.6261 C   0  0  0  0  0  0  0  0  0  0  0  0
   -2.5275   -1.1365    3.2156 O   0  0  0  0  0  0  0  0  0  0  0  0
   -1.5204   -2.2184    1.4518 C   0  0  2  0  0  0  0  0  0  0  0  0
   -1.5414   -3.5189    0.9118 O   0  0  0  0  0  0  0  0  0  0  0  0
   -0.1848   -2.0319    2.0007 C   0  0  0  0  0  0  0  0  0  0  0  0
    0.5248   -0.9892    1.2128 C   0  0  0  0  0  0  0  0  0  0  0  0
    1.9019   -1.1956    1.1215 C   0  0  0  0  0  0  0  0  0  0  0  0
    2.4694   -2.2996    1.7296 O   0  0  0  0  0  0  0  0  0  0  0  0
    2.6832   -0.2883    0.4206 C   0  0  0  0  0  0  0  0  0  0  0  0
    2.1121    0.8091   -0.1827 C   0  0  0  0  0  0  0  0  0  0  0  0
    0.7245    0.9801   -0.0675 C   0  0  0  0  0  0  0  0  0  0  0  0
    0.1456    2.0604   -0.6588 O   0  0  0  0  0  0  0  0  0  0  0  0
   -0.0334    0.0924    0.6170 C   0  0  0  0  0  0  0  0  0  0  0  0
   -1.5851    0.2436    0.7577 C   0  0  1  0  0  0  0  0  0  0  0  0
   -1.8620    0.6736   -0.6525 O   0  0  0  0  0  0  0  0  0  0  0  0
   -3.3168    1.0410   -0.6051 C   0  0  1  0  0  0  0  0  0  0  0  0
   -3.5752    0.8677   -2.2156 C   0  0  0  0  0  0  0  0  0  0  0  0
   -4.7811   -0.1737   -2.3554 C   0  0  2  0  0  0  0  0  0  0  0  0
   -5.4394    0.5641   -3.5475 N   0  0  0  0  0  0  0  0  0  0  0  0
   -5.9169    0.4298   -1.2691 C   0  0  2  0  0  0  0  0  0  0  0  0
   -5.5898    1.8605   -1.2835 O   0  0  0  0  0  0  0  0  0  0  0  0
   -5.2384   -0.1109    0.1781 C   0  0  2  0  0  0  0  0  0  0  0  0
   -5.2062    1.2728    1.0384 C   0  0  0  0  0  0  0  0  0  0  0  0
   -3.8212   -0.2858   -0.2011 O   0  0  0  0  0  0  0  0  0  0  0  0
   -1.8123   -1.3582    0.3586 C   0  0  0  0  0  0  0  0  0  0  0  0
    2.9553    1.7232   -0.8978 C   0  0  0  0  0  0  0  0  0  0  0  0
    2.4558    2.7259   -1.4527 O   0  0  0  0  0  0  0  0  0  0  0  0
    4.4122    1.5107   -0.9980 C   0  0  0  0  0  0  0  0  0  0  0  0
    5.2299    2.3814   -1.6816 C   0  0  0  0  0  0  0  0  0  0  0  0
    6.6077    2.1697   -1.7695 C   0  0  0  0  0  0  0  0  0  0  0  0
    7.1705    1.0655   -1.1606 C   0  0  0  0  0  0  0  0  0  0  0  0
    6.3486    0.1942   -0.4759 C   0  0  0  0  0  0  0  0  0  0  0  0
    4.9717    0.4076   -0.3892 C   0  0  0  0  0  0  0  0  0  0  0  0
    4.1456   -0.5138    0.3278 C   0  0  0  0  0  0  0  0  0  0  0  0
    4.5723   -1.5456    0.9128 O   0  0  0  0  0  0  0  0  0  0  0  0
  1  2  1  0
  2  3  2  0
  2  4  1  0
  4  5  1  6
  4  6  1  0
  6  7  1  0
  7  8  2  0
  8  9  1  0
  8 10  1  0
 10 11  2  0
 11 12  1  0
 12 13  1  0
 12 14  2  0
 14 15  1  0
 15 16  1  6
 17 16  1  6
 17 18  1  0
 18 19  1  0
 19 20  1  6
 19 21  1  0
 21 22  1  1
 21 23  1  0
 23 24  1  1
 23 25  1  0
 15 26  1  0
 11 27  1  0
 27 28  2  0
 27 29  1  0
 29 30  2  0
 30 31  1  0
 31 32  2  0
 32 33  1  0
 33 34  2  0
 34 35  1  0
 35 36  2  0
 26  4  1  0
 34 29  1  0
 14  7  1  0
 25 17  1  0
 35 10  1  0
M  END
>  <zinc_id>  (1) 
ZINC000003920266

>  <smiles>  (1) 
CC(=O)[C@]1(O)Cc2c(O)c3c(c(O)c2[C@@H](O[C@H]2C[C@H](N)[C@H](O)[C@H](C)O2)C1)C(=O)c1ccccc1C3=O

$$$$
