
     RDKit          3D

 13 13  0  0  0  0  0  0  0  0999 V2000
    0.5633   -1.9120   -0.3458 O   0  0  0  0  0  0  0  0  0  0  0  0
    0.5157   -0.6715   -0.2832 C   0  0  0  0  0  0  0  0  0  0  0  0
    1.7080    0.0248   -0.3047 O   0  0  0  0  0  0  0  0  0  0  0  0
    2.9583   -0.6697   -0.3966 C   0  0  0  0  0  0  0  0  0  0  0  0
    4.0824    0.3218   -0.4006 C   0  0  0  0  0  0  0  0  0  0  0  0
    4.0827    1.0780    0.7527 O   0  0  0  0  0  0  0  0  0  0  0  0
   -0.7830    0.0200   -0.1892 C   0  0  0  0  0  0  0  0  0  0  0  0
   -0.8358    1.3994   -0.1196 C   0  0  0  0  0  0  0  0  0  0  0  0
   -2.0634    2.0359   -0.0315 C   0  0  0  0  0  0  0  0  0  0  0  0
   -3.2221    1.3079   -0.0131 C   0  0  0  0  0  0  0  0  0  0  0  0
   -3.1437   -0.0845   -0.0846 C   0  0  0  0  0  0  0  0  0  0  0  0
   -1.9385   -0.7303   -0.1720 C   0  0  0  0  0  0  0  0  0  0  0  0
   -1.9237   -2.1197   -0.2404 O   0  0  0  0  0  0  0  0  0  0  0  0
  1  2  2  0
  2  3  1  0
  3  4  1  0
  4  5  1  0
  5  6  1  0
  2  7  1  0
  7  8  2  0
  8  9  1  0
  9 10  2  0
 10 11  1  0
 11 12  2  0
 12 13  1  0
 12  7  1  0
M  END
>  <zinc_id>  (1) 
ZINC000001698306

>  <smiles>  (1) 
O=C(OCCO)c1ccccc1O

$$$$
