
     RDKit          3D

 12 12  0  0  0  0  0  0  0  0999 V2000
    3.1959   -0.4587    0.2690 C   0  0  0  0  0  0  0  0  0  0  0  0
    1.7648   -0.4832   -0.0358 C   0  0  0  0  0  0  0  0  0  0  0  0
    1.1713   -1.6061   -0.4287 N   0  0  0  0  0  0  0  0  0  0  0  0
   -0.1081   -1.7405   -0.5820 C   0  0  0  0  0  0  0  0  0  0  0  0
   -0.9236   -0.6931   -0.3094 C   0  0  0  0  0  0  0  0  0  0  0  0
   -2.3952   -0.7159   -0.2121 C   0  0  0  0  0  0  0  0  0  0  0  0
   -2.5862   -1.4518    1.0196 O   0  0  0  0  0  0  0  0  0  0  0  0
   -0.3484    0.5367    0.0967 C   0  0  0  0  0  0  0  0  0  0  0  0
   -1.3494    1.6439    0.1865 C   0  0  0  0  0  0  0  0  0  0  0  0
   -0.9722    2.4856   -0.9228 O   0  0  0  0  0  0  0  0  0  0  0  0
    0.9824    0.6546    0.2417 C   0  0  0  0  0  0  0  0  0  0  0  0
    1.5688    1.8284    0.6773 O   0  0  0  0  0  0  0  0  0  0  0  0
  1  2  1  0
  2  3  2  0
  3  4  1  0
  4  5  2  0
  5  6  1  0
  6  7  1  0
  5  8  1  0
  8  9  1  0
  9 10  1  0
  8 11  2  0
 11 12  1  0
 11  2  1  0
M  END
>  <zinc_id>  (1) 
ZINC000000049154

>  <smiles>  (1) 
Cc1ncc(CO)c(CO)c1O

$$$$
