
     RDKit          3D

 36 40  0  0  0  0  0  0  0  0999 V2000
    7.9104   -2.0784   -0.1261 C   0  0  0  0  0  0  0  0  0  0  0  0
    7.6424   -1.8894   -0.5683 C   0  0  0  0  0  0  0  0  0  0  0  0
    7.1926   -2.8233   -1.3015 O   0  0  0  0  0  0  0  0  0  0  0  0
    7.4071   -0.5828   -0.9642 N   0  0  0  0  0  0  0  0  0  0  0  0
    7.8689    0.5523   -0.2127 C   0  0  0  0  0  0  0  0  0  0  0  0
    6.6869    1.2194    0.4547 C   0  0  0  0  0  0  0  0  0  0  0  0
    5.5542    1.0693   -0.4519 N   0  0  0  0  0  0  0  0  0  0  0  0
    4.2685    1.1155    0.0961 C   0  0  0  0  0  0  0  0  0  0  0  0
    4.0417    1.2964    1.4513 C   0  0  0  0  0  0  0  0  0  0  0  0
    2.7601    1.3367    1.9554 C   0  0  0  0  0  0  0  0  0  0  0  0
    1.6684    1.1991    1.1326 C   0  0  0  0  0  0  0  0  0  0  0  0
    0.3639    1.2317    1.5846 O   0  0  0  0  0  0  0  0  0  0  0  0
   -0.7063    1.0848    0.6911 C   0  0  0  0  0  0  0  0  0  0  0  0
   -0.5072   -0.3888   -0.0076 C   0  0  1  0  0  0  0  0  0  0  0  0
   -1.2722   -1.2055    1.2034 C   0  0  0  0  0  0  0  0  0  0  0  0
   -2.4188   -0.4454    1.2503 O   0  0  0  0  0  0  0  0  0  0  0  0
   -2.7574   -0.5353   -0.0671 C   0  0  1  0  0  0  0  0  0  0  0  0
   -3.3486   -1.9251   -0.3029 C   0  0  0  0  0  0  0  0  0  0  0  0
   -4.5309   -2.1308    0.5229 N   0  0  0  0  0  0  0  0  0  0  0  0
   -4.5770   -2.6399    1.7662 C   0  0  0  0  0  0  0  0  0  0  0  0
   -5.8719   -2.6738    2.2079 C   0  0  0  0  0  0  0  0  0  0  0  0
   -6.6349   -2.1814    1.2296 N   0  0  0  0  0  0  0  0  0  0  0  0
   -5.8133   -1.8600    0.2245 C   0  0  0  0  0  0  0  0  0  0  0  0
   -3.8823    0.4271   -0.3252 C   0  0  0  0  0  0  0  0  0  0  0  0
   -4.3976    1.2126    0.6816 C   0  0  0  0  0  0  0  0  0  0  0  0
   -5.4263    2.1117    0.5073 C   0  0  0  0  0  0  0  0  0  0  0  0
   -5.9476    2.2047   -0.7652 C   0  0  0  0  0  0  0  0  0  0  0  0
   -7.2691    3.3634   -0.9769 Cl  0  0  0  0  0  0  0  0  0  0  0  0
   -5.4787    1.4479   -1.8184 C   0  0  0  0  0  0  0  0  0  0  0  0
   -4.4434    0.5634   -1.5765 C   0  0  0  0  0  0  0  0  0  0  0  0
   -3.8404   -0.4042   -2.9126 Cl  0  0  0  0  0  0  0  0  0  0  0  0
   -1.7404   -0.2759   -0.8746 O   0  0  0  0  0  0  0  0  0  0  0  0
    1.9059    1.0205   -0.2070 C   0  0  0  0  0  0  0  0  0  0  0  0
    3.1806    0.9761   -0.7397 C   0  0  0  0  0  0  0  0  0  0  0  0
    5.7520    0.8790   -1.8697 C   0  0  0  0  0  0  0  0  0  0  0  0
    6.6608   -0.2715   -2.1940 C   0  0  0  0  0  0  0  0  0  0  0  0
  1  2  1  0
  2  3  2  0
  2  4  1  0
  4  5  1  0
  5  6  1  0
  6  7  1  0
  7  8  1  0
  8  9  2  0
  9 10  1  0
 10 11  2  0
 11 12  1  0
 12 13  1  0
 14 13  1  1
 14 15  1  0
 15 16  1  0
 16 17  1  0
 17 18  1  1
 18 19  1  0
 19 20  1  0
 20 21  2  0
 21 22  1  0
 22 23  2  0
 17 24  1  0
 24 25  2  0
 25 26  1  0
 26 27  2  0
 27 28  1  0
 27 29  1  0
 29 30  2  0
 30 31  1  0
 17 32  1  0
 11 33  1  0
 33 34  2  0
  7 35  1  0
 35 36  1  0
 36  4  1  0
 34  8  1  0
 32 14  1  0
 23 19  1  0
 30 24  1  0
M  END
>  <zinc_id>  (1) 
ZINC000003872994

>  <smiles>  (1) 
CC(=O)N1CCN(c2ccc(OC[C@H]3CO[C@@](Cn4ccnc4)(c4ccc(Cl)cc4Cl)O3)cc2)CC1

$$$$
