
     RDKit          3D

 16 17  0  0  0  0  0  0  0  0999 V2000
   -2.2012    2.9667    1.4194 N   0  0  0  0  0  0  0  0  0  0  0  0
   -1.9266    1.7073    0.8641 C   0  0  0  0  0  0  0  0  0  0  0  0
   -0.7484    1.0695    1.1296 N   0  0  0  0  0  0  0  0  0  0  0  0
   -0.5072   -0.1359    0.5868 C   0  0  0  0  0  0  0  0  0  0  0  0
   -1.4393   -0.7283   -0.2326 C   0  0  0  0  0  0  0  0  0  0  0  0
   -0.9056   -1.8999   -0.6028 N   0  0  0  0  0  0  0  0  0  0  0  0
    0.3219   -2.0440   -0.0371 C   0  0  0  0  0  0  0  0  0  0  0  0
    0.5623   -0.9434    0.7008 N   0  0  0  0  0  0  0  0  0  0  0  0
    1.7566   -0.7117    1.4577 C   0  0  0  0  0  0  0  0  0  0  0  0
    2.7517   -0.0683    0.7645 O   0  0  0  0  0  0  0  0  0  0  0  0
    3.1687   -0.7761   -0.3635 C   0  0  0  0  0  0  0  0  0  0  0  0
    4.2547   -0.0619   -1.1096 C   0  0  0  0  0  0  0  0  0  0  0  0
    3.8616    1.1960   -1.5601 O   0  0  0  0  0  0  0  0  0  0  0  0
   -2.6293   -0.0636   -0.4893 C   0  0  0  0  0  0  0  0  0  0  0  0
   -3.4623   -0.6432   -1.2495 O   0  0  0  0  0  0  0  0  0  0  0  0
   -2.8574    1.1367    0.0576 N   0  0  0  0  0  0  0  0  0  0  0  0
  1  2  1  0
  2  3  2  0
  3  4  1  0
  4  5  2  0
  5  6  1  0
  6  7  2  0
  7  8  1  0
  8  9  1  0
  9 10  1  0
 10 11  1  0
 11 12  1  0
 12 13  1  0
  5 14  1  0
 14 15  2  0
 14 16  1  0
 16  2  1  0
  8  4  1  0
M  END
>  <zinc_id>  (1) 
ZINC000001530555

>  <smiles>  (1) 
Nc1nc2c(ncn2COCCO)c(=O)[nH]1

$$$$
