
     RDKit          3D

 28 31  0  0  0  0  0  0  0  0999 V2000
   -6.3980    2.7581   -0.8727 C   0  0  0  0  0  0  0  0  0  0  0  0
   -6.2702    1.9458   -0.3741 O   0  0  0  0  0  0  0  0  0  0  0  0
   -5.1863    1.1064   -0.0765 C   0  0  0  0  0  0  0  0  0  0  0  0
   -3.9250    1.3985   -0.5546 C   0  0  0  0  0  0  0  0  0  0  0  0
   -2.8540    0.5956   -0.2778 C   0  0  0  0  0  0  0  0  0  0  0  0
   -3.0678   -0.5131    0.4917 C   0  0  0  0  0  0  0  0  0  0  0  0
   -4.3477   -0.8169    0.9816 C   0  0  0  0  0  0  0  0  0  0  0  0
   -5.4277   -0.0069    0.7021 C   0  0  0  0  0  0  0  0  0  0  0  0
   -6.7167   -0.2480    1.1534 O   0  0  0  0  0  0  0  0  0  0  0  0
   -7.0011   -1.3813    1.9548 C   0  0  0  0  0  0  0  0  0  0  0  0
   -1.7775   -1.1823    0.6335 C   0  0  0  0  0  0  0  0  0  0  0  0
   -1.5344   -2.3815    0.8055 O   0  0  0  0  0  0  0  0  0  0  0  0
   -0.6807   -0.0622    0.5272 C   0  0  1  0  0  0  0  0  0  0  0  0
    0.3089   -0.8910   -0.4552 C   0  0  0  0  0  0  0  0  0  0  0  0
    1.4796    0.0295   -0.7012 C   0  0  0  0  0  0  0  0  0  0  0  0
    2.2247    0.4306    0.5066 C   0  0  0  0  0  0  0  0  0  0  0  0
    3.0523   -0.6465    1.0633 C   0  0  0  0  0  0  0  0  0  0  0  0
    3.4924   -1.6661    0.2220 N   0  0  0  0  0  0  0  0  0  0  0  0
    4.9496   -1.7810    0.3506 C   0  0  0  0  0  0  0  0  0  0  0  0
    5.4661   -0.4277   -0.0671 C   0  0  0  0  0  0  0  0  0  0  0  0
    5.6254    0.5549    0.8889 C   0  0  0  0  0  0  0  0  0  0  0  0
    6.0980    1.8098    0.5388 C   0  0  0  0  0  0  0  0  0  0  0  0
    6.3968    2.0389   -0.7661 C   0  0  0  0  0  0  0  0  0  0  0  0
    6.2420    1.0754   -1.7123 C   0  0  0  0  0  0  0  0  0  0  0  0
    5.7734   -0.1818   -1.3899 C   0  0  0  0  0  0  0  0  0  0  0  0
    3.1532   -1.6855   -1.1226 C   0  0  0  0  0  0  0  0  0  0  0  0
    2.3715   -0.5821   -1.6936 C   0  0  0  0  0  0  0  0  0  0  0  0
   -1.4469    0.7104   -0.6784 C   0  0  0  0  0  0  0  0  0  0  0  0
  1  2  1  0
  2  3  1  0
  3  4  2  0
  4  5  1  0
  5  6  2  0
  6  7  1  0
  7  8  2  0
  8  9  1  0
  9 10  1  0
  6 11  1  0
 11 12  2  0
 11 13  1  0
 13 14  1  6
 14 15  1  0
 15 16  1  0
 16 17  1  0
 17 18  1  0
 18 19  1  0
 19 20  1  0
 20 21  2  0
 21 22  1  0
 22 23  2  0
 23 24  1  0
 24 25  2  0
 18 26  1  0
 26 27  1  0
 13 28  1  0
  8  3  1  0
 27 15  1  0
 28  5  1  0
 25 20  1  0
M  END
>  <zinc_id>  (1) 
ZINC000000597013

>  <smiles>  (1) 
COc1cc2c(cc1OC)C(=O)[C@@H](CC1CCN(Cc3ccccc3)CC1)C2

$$$$
