
     RDKit          3D

 25 26  0  0  0  0  0  0  0  0999 V2000
    2.8196    1.8208   -1.6500 C   0  0  0  0  0  0  0  0  0  0  0  0
    3.1337    1.6292   -0.6741 C   0  0  0  0  0  0  0  0  0  0  0  0
    3.5018    2.7373    0.2895 C   0  0  0  0  0  0  0  0  0  0  0  0
    2.7931    0.3924   -0.0497 N   0  0  0  0  0  0  0  0  0  0  0  0
    1.3992    0.1596    0.1386 C   0  0  0  0  0  0  0  0  0  0  0  0
    0.6571   -0.0445   -1.1401 C   0  0  0  0  0  0  0  0  0  0  0  0
   -0.8175   -0.2874   -0.8705 C   0  0  1  0  0  0  0  0  0  0  0  0
   -1.4812   -0.4833   -2.1811 C   0  0  0  0  0  0  0  0  0  0  0  0
   -1.0838   -1.5320   -3.0373 N   0  0  0  0  0  0  0  0  0  0  0  0
   -2.3989    0.2805   -2.5373 O   0  0  0  0  0  0  0  0  0  0  0  0
   -1.0040   -1.5072   -0.0321 C   0  0  0  0  0  0  0  0  0  0  0  0
   -1.5202   -2.6739   -0.5636 C   0  0  0  0  0  0  0  0  0  0  0  0
   -1.6814   -3.7817    0.2414 C   0  0  0  0  0  0  0  0  0  0  0  0
   -1.3208   -3.6925    1.5633 C   0  0  0  0  0  0  0  0  0  0  0  0
   -0.8023   -2.5349    2.1146 C   0  0  0  0  0  0  0  0  0  0  0  0
   -0.6431   -1.4304    1.3068 C   0  0  0  0  0  0  0  0  0  0  0  0
   -1.4669    0.8623   -0.2027 C   0  0  0  0  0  0  0  0  0  0  0  0
   -0.6774    1.8913    0.2500 C   0  0  0  0  0  0  0  0  0  0  0  0
   -1.2769    2.9743    0.8765 C   0  0  0  0  0  0  0  0  0  0  0  0
   -2.6494    3.0271    1.0473 C   0  0  0  0  0  0  0  0  0  0  0  0
   -3.4001    1.9641    0.5724 C   0  0  0  0  0  0  0  0  0  0  0  0
   -2.7822    0.9103   -0.0406 N   0  0  0  0  0  0  0  0  0  0  0  0
    3.6288   -0.0409    1.0128 C   0  0  0  0  0  0  0  0  0  0  0  0
    3.6698    0.8472    2.2152 C   0  0  0  0  0  0  0  0  0  0  0  0
    3.4031   -1.4874    1.3506 C   0  0  0  0  0  0  0  0  0  0  0  0
  1  2  1  0
  2  3  1  0
  2  4  1  0
  4  5  1  0
  5  6  1  0
  7  6  1  6
  7  8  1  0
  8  9  1  0
  8 10  2  0
  7 11  1  0
 11 12  2  0
 12 13  1  0
 13 14  2  0
 14 15  1  0
 15 16  2  0
  7 17  1  0
 17 18  2  0
 18 19  1  0
 19 20  2  0
 20 21  1  0
 21 22  2  0
  4 23  1  0
 23 24  1  0
 23 25  1  0
 16 11  1  0
 22 17  1  0
M  END
>  <zinc_id>  (1) 
ZINC000001530617

>  <smiles>  (1) 
CC(C)N(CC[C@@](C(N)=O)(c1ccccc1)c1ccccn1)C(C)C

$$$$
