
     RDKit          3D

 25 25  0  0  0  0  0  0  0  0999 V2000
   -3.5701   -3.2653    0.9776 C   0  0  0  0  0  0  0  0  0  0  0  0
   -2.4846   -2.3319    0.4493 C   0  0  0  0  0  0  0  0  0  0  0  0
   -2.0488   -2.8958   -0.8935 C   0  0  0  0  0  0  0  0  0  0  0  0
   -3.0825   -0.9900    0.2271 C   0  0  0  0  0  0  0  0  0  0  0  0
   -4.3987   -0.7533    0.5753 C   0  0  0  0  0  0  0  0  0  0  0  0
   -4.9591    0.4714    0.3781 C   0  0  0  0  0  0  0  0  0  0  0  0
   -4.1857    1.4725   -0.1792 C   0  0  0  0  0  0  0  0  0  0  0  0
   -2.8525    1.2567   -0.5406 C   0  0  0  0  0  0  0  0  0  0  0  0
   -2.1325    2.4108   -1.1341 C   0  0  0  0  0  0  0  0  0  0  0  0
   -3.1079    3.5213   -1.5010 C   0  0  0  0  0  0  0  0  0  0  0  0
   -1.0468    2.9648   -0.2183 C   0  0  0  0  0  0  0  0  0  0  0  0
   -2.2960    0.0179   -0.3354 C   0  0  0  0  0  0  0  0  0  0  0  0
   -0.9919   -0.2932   -0.7009 N   0  0  0  0  0  0  0  0  0  0  0  0
    0.1543   -0.3352    0.1053 C   0  0  0  0  0  0  0  0  0  0  0  0
    0.0335   -0.0682    1.3216 O   0  0  0  0  0  0  0  0  0  0  0  0
    1.4397   -0.6894   -0.4990 C   0  0  0  0  0  0  0  0  0  0  0  0
    2.5547   -0.7156    0.3830 N   0  0  0  0  0  0  0  0  0  0  0  0
    2.9442    0.5849    0.8755 C   0  0  0  0  0  0  0  0  0  0  0  0
    4.1108    0.5123    1.7971 C   0  0  0  0  0  0  0  0  0  0  0  0
    4.5002    1.6185    2.2669 O   0  0  0  0  0  0  0  0  0  0  0  0
    4.7219   -0.6866    2.1151 O   0  0  0  0  0  0  0  0  0  0  0  0
    3.6872   -1.3034   -0.2970 C   0  0  0  0  0  0  0  0  0  0  0  0
    4.1828   -0.4298   -1.3901 C   0  0  0  0  0  0  0  0  0  0  0  0
    3.5779    0.6726   -1.5838 O   0  0  0  0  0  0  0  0  0  0  0  0
    5.2498   -0.7456   -2.1988 O   0  0  0  0  0  0  0  0  0  0  0  0
  1  2  1  0
  2  3  1  0
  2  4  1  0
  4  5  2  0
  5  6  1  0
  6  7  2  0
  7  8  1  0
  8  9  1  0
  9 10  1  0
  9 11  1  0
  8 12  2  0
 12 13  1  0
 13 14  1  0
 14 15  2  0
 14 16  1  0
 16 17  1  0
 17 18  1  0
 18 19  1  0
 19 20  2  0
 19 21  1  0
 17 22  1  0
 22 23  1  0
 23 24  2  0
 23 25  1  0
 12  4  1  0
M  END
>  <zinc_id>  (1) 
ZINC000000001317

>  <smiles>  (1) 
CC(C)c1cccc(C(C)C)c1NC(=O)CN(CC(=O)O)CC(=O)O

$$$$
