
     RDKit          3D

  7  6  0  0  0  0  0  0  0  0999 V2000
    2.1907    0.9086   -0.1659 N   0  0  0  0  0  0  0  0  0  0  0  0
    1.8657   -0.4012    0.3014 C   0  0  0  0  0  0  0  0  0  0  0  0
    0.6634   -1.0158   -0.3193 C   0  0  0  0  0  0  0  0  0  0  0  0
   -0.8150   -0.0925   -0.0648 S   0  0  0  0  0  0  0  0  0  0  0  0
   -1.9998   -0.7691   -0.6907 O   0  0  0  0  0  0  0  0  0  0  0  0
   -0.7359    1.2950   -0.6397 O   0  0  0  0  0  0  0  0  0  0  0  0
   -1.1691    0.0749    1.5790 O   0  0  0  0  0  0  0  0  0  0  0  0
  1  2  1  0
  2  3  1  0
  3  4  1  0
  4  5  2  0
  4  6  2  0
  4  7  1  0
M  END
>  <zinc_id>  (1) 
ZINC000003809490

>  <smiles>  (1) 
NCCS(=O)(=O)O

$$$$
