
     RDKit          2D

 17 18  0  0  0  0  0  0  0  0999 V2000
    4.5726   -2.2270    0.0000 N   0  0  0  0  0  0  0  0  0  0  0  0
    4.5070   -0.7285    0.0000 C   0  0  0  0  0  0  0  0  0  0  0  0
    5.7721    0.0776    0.0000 O   0  0  0  0  0  0  0  0  0  0  0  0
    3.1765   -0.0360    0.0000 C   0  0  0  0  0  0  0  0  0  0  0  0
    2.9546    1.4475    0.0000 N   0  0  0  0  0  0  0  0  0  0  0  0
    1.4751    1.6949    0.0000 C   0  0  0  0  0  0  0  0  0  0  0  0
    0.7827    0.3644    0.0000 N   0  0  0  0  0  0  0  0  0  0  0  0
   -0.7008    0.1425    0.0000 C   0  0  0  0  0  0  0  0  0  0  0  0
   -1.3933   -1.1881    0.0000 O   0  0  0  0  0  0  0  0  0  0  0  0
   -2.8728   -0.9406    0.0000 C   0  0  0  0  0  0  0  0  0  0  0  0
   -3.9426   -1.9921    0.0000 C   0  0  0  0  0  0  0  0  0  0  0  0
   -5.3881   -1.5914    0.0000 O   0  0  0  0  0  0  0  0  0  0  0  0
   -3.0947    0.5429    0.0000 C   0  0  0  0  0  0  0  0  0  0  0  0
   -4.4252    1.2354    0.0000 O   0  0  0  0  0  0  0  0  0  0  0  0
   -1.7523    1.2123    0.0000 C   0  0  0  0  0  0  0  0  0  0  0  0
   -1.5049    2.6917    0.0000 O   0  0  0  0  0  0  0  0  0  0  0  0
    1.8341   -0.7054    0.0000 N   0  0  0  0  0  0  0  0  0  0  0  0
  1  2  1  0
  2  3  2  0
  2  4  1  0
  4  5  1  0
  5  6  2  0
  6  7  1  0
  8  7  1  6
  8  9  1  0
  9 10  1  0
 10 11  1  6
 11 12  1  0
 10 13  1  0
 13 14  1  1
 13 15  1  0
 15 16  1  1
  7 17  1  0
 17  4  2  0
 15  8  1  0
M  END
>  <zinc_id>  (1) 
ZINC000001035331

>  <smiles>  (1) 
NC(=O)c1ncn([C@@H]2O[C@H](CO)[C@@H](O)[C@H]2O)n1

$$$$
