
     RDKit          3D

 23 25  0  0  0  0  0  0  0  0999 V2000
   -5.6757   -0.6515   -1.2304 C   0  0  0  0  0  0  0  0  0  0  0  0
   -4.9892   -0.0623   -0.1466 O   0  0  0  0  0  0  0  0  0  0  0  0
   -3.6031   -0.0126   -0.1285 C   0  0  0  0  0  0  0  0  0  0  0  0
   -2.8377   -0.5411   -1.1766 C   0  0  0  0  0  0  0  0  0  0  0  0
   -1.4700   -0.4761   -1.1283 C   0  0  0  0  0  0  0  0  0  0  0  0
   -0.8698    0.0887   -0.0883 C   0  0  0  0  0  0  0  0  0  0  0  0
   -1.5754    0.6459    1.0121 C   0  0  0  0  0  0  0  0  0  0  0  0
   -2.9472    0.5652    0.9351 C   0  0  0  0  0  0  0  0  0  0  0  0
   -3.7821    1.0721    1.9471 O   0  0  0  0  0  0  0  0  0  0  0  0
   -3.2282    1.6870    3.0870 C   0  0  0  0  0  0  0  0  0  0  0  0
    0.7145    0.2467    0.0537 C   0  0  2  0  0  0  0  0  0  0  0  0
    1.0323    1.0459   -1.3790 C   0  0  0  0  0  0  0  0  0  0  0  0
    2.4419    1.3817   -1.0415 C   0  0  0  0  0  0  0  0  0  0  0  0
    2.9115    2.4795   -0.9426 O   0  0  0  0  0  0  0  0  0  0  0  0
    3.4476    0.1553   -0.7807 C   0  0  1  0  0  0  0  0  0  0  0  0
    3.2529    0.1181    0.8479 C   0  0  0  0  0  0  0  0  0  0  0  0
    4.1348   -1.0000    1.3372 C   0  0  0  0  0  0  0  0  0  0  0  0
    3.9714   -1.0540    2.8432 C   0  0  0  0  0  0  0  0  0  0  0  0
    5.5726   -0.6762    0.9736 C   0  0  0  0  0  0  0  0  0  0  0  0
    2.4111   -1.0178   -1.1605 C   0  0  0  0  0  0  0  0  0  0  0  0
    1.2517   -1.1133   -0.4666 N   0  0  0  0  0  0  0  0  0  0  0  0
    0.3689   -1.8641   -1.2141 C   0  0  0  0  0  0  0  0  0  0  0  0
   -0.5328   -1.0171   -2.1530 C   0  0  0  0  0  0  0  0  0  0  0  0
  1  2  1  0
  2  3  1  0
  3  4  2  0
  4  5  1  0
  5  6  2  0
  6  7  1  0
  7  8  2  0
  8  9  1  0
  9 10  1  0
  6 11  1  0
 11 12  1  6
 12 13  1  0
 13 14  2  0
 13 15  1  0
 15 16  1  1
 16 17  1  0
 17 18  1  0
 17 19  1  0
 15 20  1  0
 20 21  1  0
 21 22  1  0
 22 23  1  0
  8  3  1  0
 21 11  1  0
 23  5  1  0
M  END
>  <zinc_id>  (1) 
ZINC000003875393

>  <smiles>  (1) 
COc1cc2c(cc1OC)[C@@H]1CC(=O)[C@@H](CC(C)C)CN1CC2

$$$$
