
     RDKit          3D

 34 38  0  0  0  0  0  0  0  0999 V2000
    4.8307   -1.1307   -2.6977 O   0  0  0  0  0  0  0  0  0  0  0  0
    5.3279   -0.2820   -1.7179 C   0  0  0  0  0  0  0  0  0  0  0  0
    6.5527    0.2508   -1.7472 N   0  0  0  0  0  0  0  0  0  0  0  0
    6.7436    1.0334   -0.6543 C   0  0  0  0  0  0  0  0  0  0  0  0
    7.7931    1.7966   -0.1979 C   0  0  0  0  0  0  0  0  0  0  0  0
    7.6640    2.4886    0.9792 C   0  0  0  0  0  0  0  0  0  0  0  0
    6.4857    2.4019    1.6753 C   0  0  0  0  0  0  0  0  0  0  0  0
    5.4438    1.6464    1.2257 C   0  0  0  0  0  0  0  0  0  0  0  0
    5.5413    0.9415    0.0505 C   0  0  0  0  0  0  0  0  0  0  0  0
    4.6889    0.1374   -0.6091 N   0  0  0  0  0  0  0  0  0  0  0  0
    3.3194   -0.2318   -0.2235 C   0  0  0  0  0  0  0  0  0  0  0  0
    3.1373   -1.6968   -0.4704 C   0  0  0  0  0  0  0  0  0  0  0  0
    1.7027   -2.0762   -0.3133 C   0  0  0  0  0  0  0  0  0  0  0  0
    0.8373   -1.2762   -1.1670 N   0  0  0  0  0  0  0  0  0  0  0  0
   -0.5249   -1.6975   -0.9168 C   0  0  0  0  0  0  0  0  0  0  0  0
   -0.8850   -1.2718    0.4889 C   0  0  0  0  0  0  0  0  0  0  0  0
   -2.2993   -1.6713    0.8438 C   0  0  0  0  0  0  0  0  0  0  0  0
   -3.3149   -1.0452   -0.0847 C   0  0  0  0  0  0  0  0  0  0  0  0
   -4.6601   -1.5300    0.3827 C   0  0  0  0  0  0  0  0  0  0  0  0
   -5.6778   -1.7329   -0.5181 C   0  0  0  0  0  0  0  0  0  0  0  0
   -6.9103   -2.1782   -0.0898 C   0  0  0  0  0  0  0  0  0  0  0  0
   -7.1807   -2.4376    1.2378 C   0  0  0  0  0  0  0  0  0  0  0  0
   -8.4140   -2.8784    1.6321 F   0  0  0  0  0  0  0  0  0  0  0  0
   -6.1536   -2.2311    2.1347 C   0  0  0  0  0  0  0  0  0  0  0  0
   -4.9187   -1.7861    1.7125 C   0  0  0  0  0  0  0  0  0  0  0  0
   -3.2573    0.4401   -0.0512 C   0  0  0  0  0  0  0  0  0  0  0  0
   -3.6198    1.1813   -1.1651 C   0  0  0  0  0  0  0  0  0  0  0  0
   -3.5746    2.5603   -1.1574 C   0  0  0  0  0  0  0  0  0  0  0  0
   -3.1611    3.2326   -0.0223 C   0  0  0  0  0  0  0  0  0  0  0  0
   -3.1218    4.6067   -0.0319 F   0  0  0  0  0  0  0  0  0  0  0  0
   -2.7984    2.5107    1.0903 C   0  0  0  0  0  0  0  0  0  0  0  0
   -2.8513    1.1416    1.0598 C   0  0  0  0  0  0  0  0  0  0  0  0
    0.9270    0.1355   -0.8074 C   0  0  0  0  0  0  0  0  0  0  0  0
    2.3285    0.6483   -0.9110 C   0  0  0  0  0  0  0  0  0  0  0  0
  1  2  1  0
  2  3  2  0
  3  4  1  0
  4  5  2  0
  5  6  1  0
  6  7  2  0
  7  8  1  0
  8  9  2  0
  9 10  1  0
 10 11  1  0
 11 12  1  0
 12 13  1  0
 13 14  1  0
 14 15  1  0
 15 16  1  0
 16 17  1  0
 17 18  1  0
 18 19  1  0
 19 20  2  0
 20 21  1  0
 21 22  2  0
 22 23  1  0
 22 24  1  0
 24 25  2  0
 18 26  1  0
 26 27  2  0
 27 28  1  0
 28 29  2  0
 29 30  1  0
 29 31  1  0
 31 32  2  0
 14 33  1  0
 33 34  1  0
 10  2  1  0
 34 11  1  0
  9  4  1  0
 25 19  1  0
 32 26  1  0
M  END
>  <zinc_id>  (1) 
ZINC000004175630

>  <smiles>  (1) 
Oc1nc2ccccc2n1C1CCN(CCCC(c2ccc(F)cc2)c2ccc(F)cc2)CC1

$$$$
