
     RDKit          3D

 23 23  0  0  0  0  0  0  0  0999 V2000
    6.0050   -0.9731   -0.0343 C   0  0  0  0  0  0  0  0  0  0  0  0
    4.5391   -0.7385   -0.0882 C   0  0  0  0  0  0  0  0  0  0  0  0
    3.9135   -0.3393   -1.2556 C   0  0  0  0  0  0  0  0  0  0  0  0
    2.5323   -0.1202   -1.3021 C   0  0  0  0  0  0  0  0  0  0  0  0
    1.8869    0.3073   -2.5666 C   0  0  0  0  0  0  0  0  0  0  0  0
    1.8089   -0.3138   -0.1439 C   0  0  0  0  0  0  0  0  0  0  0  0
    0.4095   -0.0874   -0.2167 N   0  0  0  0  0  0  0  0  0  0  0  0
   -0.0168    1.2555    0.0587 C   0  0  0  0  0  0  0  0  0  0  0  0
    0.8283    2.1624    0.3454 O   0  0  0  0  0  0  0  0  0  0  0  0
   -1.4270    1.6419    0.0230 C   0  0  0  0  0  0  0  0  0  0  0  0
   -2.3104    0.5683   -0.3013 N   0  0  0  0  0  0  0  0  0  0  0  0
   -2.3627   -0.4146    0.7399 C   0  0  0  0  0  0  0  0  0  0  0  0
   -3.2901   -1.5175    0.3701 C   0  0  0  0  0  0  0  0  0  0  0  0
   -3.4478   -2.4667    1.1941 O   0  0  0  0  0  0  0  0  0  0  0  0
   -3.9887   -1.5595   -0.8269 O   0  0  0  0  0  0  0  0  0  0  0  0
   -3.5795    0.9837   -0.8134 C   0  0  0  0  0  0  0  0  0  0  0  0
   -4.4162    1.6685    0.1982 C   0  0  0  0  0  0  0  0  0  0  0  0
   -5.5627    2.0797   -0.1076 O   0  0  0  0  0  0  0  0  0  0  0  0
   -3.9818    1.8815    1.4984 O   0  0  0  0  0  0  0  0  0  0  0  0
    2.4370   -0.7083    1.0059 C   0  0  0  0  0  0  0  0  0  0  0  0
    1.6142   -0.9037    2.2207 C   0  0  0  0  0  0  0  0  0  0  0  0
    3.8081   -0.9300    1.0661 C   0  0  0  0  0  0  0  0  0  0  0  0
    4.6009   -1.4762    2.7083 Br  0  0  0  0  0  0  0  0  0  0  0  0
  1  2  1  0
  2  3  2  0
  3  4  1  0
  4  5  1  0
  4  6  2  0
  6  7  1  0
  7  8  1  0
  8  9  2  0
  8 10  1  0
 10 11  1  0
 11 12  1  0
 12 13  1  0
 13 14  2  0
 13 15  1  0
 11 16  1  0
 16 17  1  0
 17 18  2  0
 17 19  1  0
  6 20  1  0
 20 21  1  0
 20 22  2  0
 22 23  1  0
 22  2  1  0
M  END
>  <zinc_id>  (1) 
ZINC000000537957

>  <smiles>  (1) 
Cc1cc(C)c(NC(=O)CN(CC(=O)O)CC(=O)O)c(C)c1Br

$$$$
