
     RDKit          3D

 30 33  0  0  0  0  0  0  0  0999 V2000
   -7.3627    1.5048    1.2717 C   0  0  0  0  0  0  0  0  0  0  0  0
   -6.7098    0.6817    0.3538 O   0  0  0  0  0  0  0  0  0  0  0  0
   -5.3503    0.5108    0.3612 C   0  0  0  0  0  0  0  0  0  0  0  0
   -4.6119    1.1757    1.3010 C   0  0  0  0  0  0  0  0  0  0  0  0
   -3.2511    1.0419    1.3534 C   0  0  0  0  0  0  0  0  0  0  0  0
   -2.5028    1.6762    2.2766 N   0  0  0  0  0  0  0  0  0  0  0  0
   -1.1721    1.5206    2.3144 C   0  0  0  0  0  0  0  0  0  0  0  0
   -0.5531    0.7015    1.3990 C   0  0  0  0  0  0  0  0  0  0  0  0
   -1.2751    0.0226    0.4248 C   0  0  0  0  0  0  0  0  0  0  0  0
   -0.6319   -0.8076   -0.5023 O   0  0  0  0  0  0  0  0  0  0  0  0
    0.7560   -0.9516   -0.3401 C   0  0  0  0  0  0  0  0  0  0  0  0
    1.5478    0.1805   -0.3511 C   0  0  0  0  0  0  0  0  0  0  0  0
    2.9088    0.1317   -0.1962 C   0  0  0  0  0  0  0  0  0  0  0  0
    3.5153   -1.1049   -0.0237 C   0  0  0  0  0  0  0  0  0  0  0  0
    4.9401   -1.1819    0.1653 N   0  0  0  0  0  0  0  0  0  0  0  0
    5.6585    0.0684    0.1776 C   0  0  0  0  0  0  0  0  0  0  0  0
    5.0434    1.1184    0.0233 O   0  0  0  0  0  0  0  0  0  0  0  0
    7.0744    0.1055    0.3656 N   0  0  0  0  0  0  0  0  0  0  0  0
    7.8068    1.3830    0.3759 C   0  0  0  0  0  0  0  0  0  0  0  0
    7.9592    2.1106   -0.8936 C   0  0  0  0  0  0  0  0  0  0  0  0
    6.8677    2.5795    0.0518 C   0  0  0  0  0  0  0  0  0  0  0  0
    2.7363   -2.2350   -0.0155 C   0  0  0  0  0  0  0  0  0  0  0  0
    3.5291   -3.8129    0.2016 Cl  0  0  0  0  0  0  0  0  0  0  0  0
    1.3694   -2.1692   -0.1704 C   0  0  0  0  0  0  0  0  0  0  0  0
   -2.6325    0.2052    0.4152 C   0  0  0  0  0  0  0  0  0  0  0  0
   -3.3661   -0.4657   -0.5324 C   0  0  0  0  0  0  0  0  0  0  0  0
   -4.7456   -0.3217   -0.5739 C   0  0  0  0  0  0  0  0  0  0  0  0
   -5.5616   -1.0175   -1.5549 C   0  0  0  0  0  0  0  0  0  0  0  0
   -6.9631   -0.8582   -1.6061 N   0  0  0  0  0  0  0  0  0  0  0  0
   -5.0234   -1.7926   -2.3937 O   0  0  0  0  0  0  0  0  0  0  0  0
  1  2  1  0
  2  3  1  0
  3  4  2  0
  4  5  1  0
  5  6  2  0
  6  7  1  0
  7  8  2  0
  8  9  1  0
  9 10  1  0
 10 11  1  0
 11 12  2  0
 12 13  1  0
 13 14  2  0
 14 15  1  0
 15 16  1  0
 16 17  2  0
 16 18  1  0
 18 19  1  0
 19 20  1  0
 20 21  1  0
 14 22  1  0
 22 23  1  0
 22 24  2  0
  9 25  2  0
 25 26  1  0
 26 27  2  0
 27 28  1  0
 28 29  1  0
 28 30  2  0
 27  3  1  0
 25  5  1  0
 24 11  1  0
 21 19  1  0
M  END
>  <zinc_id>  (1) 
ZINC000003816292

>  <smiles>  (1) 
COc1cc2nccc(Oc3ccc(NC(=O)NC4CC4)c(Cl)c3)c2cc1C(N)=O

$$$$
