
     RDKit          3D

 36 39  0  0  0  0  0  0  0  0999 V2000
    8.1815    1.2097   -0.6600 C   0  0  0  0  0  0  0  0  0  0  0  0
    7.5371    1.9451   -0.1260 C   0  0  0  0  0  0  0  0  0  0  0  0
    6.1501    1.7152    0.2090 N   0  0  0  0  0  0  0  0  0  0  0  0
    5.7976    1.1095    1.4663 C   0  0  0  0  0  0  0  0  0  0  0  0
    4.4342    1.5443    1.9618 C   0  0  0  0  0  0  0  0  0  0  0  0
    3.4089    1.2972    0.9254 N   0  0  0  0  0  0  0  0  0  0  0  0
    2.2459    0.5590    1.2035 C   0  0  0  0  0  0  0  0  0  0  0  0
    2.1041    0.1290    2.3845 O   0  0  0  0  0  0  0  0  0  0  0  0
    1.2911    0.3230    0.1800 N   0  0  0  0  0  0  0  0  0  0  0  0
    0.0452   -0.5168    0.6429 C   0  0  1  0  0  0  0  0  0  0  0  0
   -0.7677   -0.4027   -0.7242 C   0  0  0  0  0  0  0  0  0  0  0  0
   -0.3280    0.1923   -1.7046 O   0  0  0  0  0  0  0  0  0  0  0  0
   -2.0396   -1.0511   -0.7085 N   0  0  0  0  0  0  0  0  0  0  0  0
   -2.8406   -0.9687   -2.0266 C   0  0  2  0  0  0  0  0  0  0  0  0
   -3.1653    0.6559   -1.8368 C   0  0  0  0  0  0  0  0  0  0  0  0
   -2.7171    1.5676   -2.5473 O   0  0  0  0  0  0  0  0  0  0  0  0
   -3.9532    0.2947   -0.7658 N   0  0  0  0  0  0  0  0  0  0  0  0
   -4.4287   -1.0205   -1.4437 C   0  0  2  0  0  0  0  0  0  0  0  0
   -4.3516   -2.0090    0.2034 S   0  0  0  0  0  0  0  0  0  0  0  0
   -5.5155   -0.7219    0.8114 C   0  0  0  0  0  0  0  0  0  0  0  0
   -5.7442   -0.8742    2.2786 C   0  0  0  0  0  0  0  0  0  0  0  0
   -6.7381   -0.5958    0.0049 C   0  0  0  0  0  0  0  0  0  0  0  0
   -4.4871    0.4533    0.5667 C   0  0  2  0  0  0  0  0  0  0  0  0
   -5.5849    1.5924    0.3467 C   0  0  0  0  0  0  0  0  0  0  0  0
   -5.8462    2.0749   -0.7148 O   0  0  0  0  0  0  0  0  0  0  0  0
   -6.1965    1.9527    1.5356 O   0  0  0  0  0  0  0  0  0  0  0  0
    0.6674   -1.9470    0.2970 C   0  0  0  0  0  0  0  0  0  0  0  0
    1.9559   -2.2083    0.3999 C   0  0  0  0  0  0  0  0  0  0  0  0
    2.4036   -3.4798    0.1098 C   0  0  0  0  0  0  0  0  0  0  0  0
    1.5110   -4.4818   -0.2869 C   0  0  0  0  0  0  0  0  0  0  0  0
    0.1700   -4.1748   -0.3848 C   0  0  0  0  0  0  0  0  0  0  0  0
   -0.2664   -2.8968   -0.0926 C   0  0  0  0  0  0  0  0  0  0  0  0
    3.7137    1.8738   -0.3407 C   0  0  0  0  0  0  0  0  0  0  0  0
    2.7919    2.1830   -1.1068 O   0  0  0  0  0  0  0  0  0  0  0  0
    5.1075    2.0861   -0.7038 C   0  0  0  0  0  0  0  0  0  0  0  0
    5.4543    2.5901   -1.8033 O   0  0  0  0  0  0  0  0  0  0  0  0
  1  2  1  0
  2  3  1  0
  3  4  1  0
  4  5  1  0
  5  6  1  0
  6  7  1  0
  7  8  2  0
  7  9  1  0
 10  9  1  6
 10 11  1  0
 11 12  2  0
 11 13  1  0
 14 13  1  1
 14 15  1  0
 15 16  2  0
 15 17  1  0
 17 18  1  0
 18 19  1  1
 19 20  1  0
 20 21  1  0
 20 22  1  0
 20 23  1  0
 23 24  1  6
 24 25  2  0
 24 26  1  0
 10 27  1  0
 27 28  2  0
 28 29  1  0
 29 30  2  0
 30 31  1  0
 31 32  2  0
  6 33  1  0
 33 34  2  0
 33 35  1  0
 35 36  2  0
 35  3  1  0
 18 14  1  0
 32 27  1  0
 23 17  1  0
M  END
>  <zinc_id>  (1) 
ZINC000003913937

>  <smiles>  (1) 
CCN1CCN(C(=O)N[C@@H](C(=O)N[C@@H]2C(=O)N3[C@@H](C(=O)O)C(C)(C)S[C@H]23)c2ccccc2)C(=O)C1=O

$$$$
