
     RDKit          3D

  9  9  0  0  0  0  0  0  0  0999 V2000
    2.4374    1.1889    0.3807 N   0  0  0  0  0  0  0  0  0  0  0  0
    1.7298   -0.0045    0.0406 C   0  0  0  0  0  0  0  0  0  0  0  0
    2.3428   -1.0618   -0.2308 O   0  0  0  0  0  0  0  0  0  0  0  0
    0.2844    0.0041    0.0080 C   0  0  0  0  0  0  0  0  0  0  0  0
   -0.3727   -1.1674   -0.3247 C   0  0  0  0  0  0  0  0  0  0  0  0
   -1.7517   -1.1590   -0.3558 C   0  0  0  0  0  0  0  0  0  0  0  0
   -2.4301   -0.0119   -0.0619 C   0  0  0  0  0  0  0  0  0  0  0  0
   -1.7834    1.0977    0.2538 N   0  0  0  0  0  0  0  0  0  0  0  0
   -0.4564    1.1140    0.2902 C   0  0  0  0  0  0  0  0  0  0  0  0
  1  2  1  0
  2  3  2  0
  2  4  1  0
  4  5  2  0
  5  6  1  0
  6  7  2  0
  7  8  1  0
  8  9  2  0
  9  4  1  0
M  END
>  <zinc_id>  (1) 
ZINC000000005878

>  <smiles>  (1) 
NC(=O)c1cccnc1

$$$$
