
     RDKit          3D

  9  9  0  0  0  0  0  0  0  0999 V2000
    2.4286   -1.0111   -0.1788 N   0  0  0  0  0  0  0  0  0  0  0  0
    1.7544    0.0127    0.1348 C   0  0  0  0  0  0  0  0  0  0  0  0
    2.3463    1.1750    0.5916 O   0  0  0  0  0  0  0  0  0  0  0  0
    0.3063   -0.0154    0.0173 C   0  0  0  0  0  0  0  0  0  0  0  0
   -0.4861    1.0772    0.3465 C   0  0  0  0  0  0  0  0  0  0  0  0
   -1.8248    1.0514    0.2379 N   0  0  0  0  0  0  0  0  0  0  0  0
   -2.4670   -0.0445   -0.1990 C   0  0  0  0  0  0  0  0  0  0  0  0
   -1.6979   -1.1383   -0.5304 C   0  0  0  0  0  0  0  0  0  0  0  0
   -0.3599   -1.1070   -0.4199 N   0  0  0  0  0  0  0  0  0  0  0  0
  1  2  2  0
  2  3  1  0
  2  4  1  0
  4  5  2  0
  5  6  1  0
  6  7  2  0
  7  8  1  0
  8  9  2  0
  9  4  1  0
M  END
>  <zinc_id>  (1) 
ZINC000000002005

>  <smiles>  (1) 
N=C(O)c1cnccn1

$$$$
