
     RDKit          3D

 25 27  0  0  0  0  0  0  0  0999 V2000
    1.0365   -1.7645   -1.2992 C   0  0  0  0  0  0  0  0  0  0  0  0
    1.2553   -1.0684    0.2343 C   0  0  1  0  0  0  0  0  0  0  0  0
    2.5261   -0.1822   -0.0735 C   0  0  0  0  0  0  0  0  0  0  0  0
    2.3392    1.0941   -0.3248 N   0  0  0  0  0  0  0  0  0  0  0  0
    3.4273    1.9366   -0.4406 C   0  0  0  0  0  0  0  0  0  0  0  0
    4.6567    1.4699   -0.3089 N   0  0  0  0  0  0  0  0  0  0  0  0
    4.8892    0.1540   -0.0537 C   0  0  0  0  0  0  0  0  0  0  0  0
    3.7836   -0.6757    0.0639 C   0  0  0  0  0  0  0  0  0  0  0  0
    3.8919   -2.0124    0.2828 F   0  0  0  0  0  0  0  0  0  0  0  0
    0.0633    0.0124   -0.1996 C   0  0  2  0  0  0  0  0  0  0  0  0
    0.4370    0.6455   -1.3562 O   0  0  0  0  0  0  0  0  0  0  0  0
   -0.0566    0.8860    0.9888 C   0  0  0  0  0  0  0  0  0  0  0  0
   -1.0558    1.9324    0.7903 N   0  0  0  0  0  0  0  0  0  0  0  0
   -2.3608    1.8322    1.0301 C   0  0  0  0  0  0  0  0  0  0  0  0
   -2.9315    3.0413    0.6923 N   0  0  0  0  0  0  0  0  0  0  0  0
   -1.9663    3.8387    0.2556 C   0  0  0  0  0  0  0  0  0  0  0  0
   -0.7936    3.1380    0.3222 N   0  0  0  0  0  0  0  0  0  0  0  0
   -1.1473   -0.8106   -0.3133 C   0  0  0  0  0  0  0  0  0  0  0  0
   -1.8776   -0.9923   -1.4614 C   0  0  0  0  0  0  0  0  0  0  0  0
   -2.9999   -1.7779   -1.5492 C   0  0  0  0  0  0  0  0  0  0  0  0
   -3.4202   -2.4200   -0.4116 C   0  0  0  0  0  0  0  0  0  0  0  0
   -4.5143   -3.2488   -0.4324 F   0  0  0  0  0  0  0  0  0  0  0  0
   -2.6979   -2.2423    0.7629 C   0  0  0  0  0  0  0  0  0  0  0  0
   -1.5852   -1.4589    0.8145 C   0  0  0  0  0  0  0  0  0  0  0  0
   -0.8989   -1.3272    1.9868 F   0  0  0  0  0  0  0  0  0  0  0  0
  2  1  1  6
  2  3  1  0
  3  4  2  0
  4  5  1  0
  5  6  2  0
  6  7  1  0
  7  8  2  0
  8  9  1  0
  2 10  1  0
 10 11  1  6
 10 12  1  0
 12 13  1  0
 13 14  1  0
 14 15  2  0
 15 16  1  0
 16 17  2  0
 10 18  1  0
 18 19  2  0
 19 20  1  0
 20 21  2  0
 21 22  1  0
 21 23  1  0
 23 24  2  0
 24 25  1  0
  8  3  1  0
 17 13  1  0
 24 18  1  0
M  END
>  <zinc_id>  (1) 
ZINC000000014864

>  <smiles>  (1) 
C[C@@H](c1ncncc1F)[C@](O)(Cn1cncn1)c1ccc(F)cc1F

$$$$
