
     RDKit          2D

 23 24  0  0  0  0  0  0  0  0999 V2000
   -4.5827    3.4243    0.0000 O   0  0  0  0  0  0  0  0  0  0  0  0
   -3.1476    2.9880    0.0000 C   0  0  0  0  0  0  0  0  0  0  0  0
   -2.8079    1.5269    0.0000 C   0  0  0  0  0  0  0  0  0  0  0  0
   -3.7903    0.3934    0.0000 O   0  0  0  0  0  0  0  0  0  0  0  0
   -3.0158   -0.8912    0.0000 C   0  0  0  0  0  0  0  0  0  0  0  0
   -4.3743   -1.5272    0.0000 O   0  0  0  0  0  0  0  0  0  0  0  0
   -2.5253   -2.3087    0.0000 C   0  0  0  0  0  0  0  0  0  0  0  0
   -3.5076   -3.4423    0.0000 O   0  0  0  0  0  0  0  0  0  0  0  0
   -1.5547   -0.5516    0.0000 C   0  0  0  0  0  0  0  0  0  0  0  0
   -0.4212   -1.5339    0.0000 O   0  0  0  0  0  0  0  0  0  0  0  0
   -1.4263    0.9429    0.0000 C   0  0  0  0  0  0  0  0  0  0  0  0
   -0.1417    1.7175    0.0000 O   0  0  0  0  0  0  0  0  0  0  0  0
    1.1713    0.9922    0.0000 C   0  0  0  0  0  0  0  0  0  0  0  0
    1.1998   -0.5075    0.0000 O   0  0  0  0  0  0  0  0  0  0  0  0
    2.5128   -1.2327    0.0000 C   0  0  0  0  0  0  0  0  0  0  0  0
    2.5413   -2.7324    0.0000 C   0  0  0  0  0  0  0  0  0  0  0  0
    1.2567   -3.5069    0.0000 O   0  0  0  0  0  0  0  0  0  0  0  0
    3.7974   -0.4582    0.0000 C   0  0  0  0  0  0  0  0  0  0  0  0
    5.1104   -1.1834    0.0000 O   0  0  0  0  0  0  0  0  0  0  0  0
    3.7689    1.0415    0.0000 C   0  0  0  0  0  0  0  0  0  0  0  0
    5.0535    1.8161    0.0000 O   0  0  0  0  0  0  0  0  0  0  0  0
    2.4559    1.7668    0.0000 C   0  0  0  0  0  0  0  0  0  0  0  0
    2.4274    3.2665    0.0000 O   0  0  0  0  0  0  0  0  0  0  0  0
  1  2  1  0
  3  2  1  6
  3  4  1  0
  4  5  1  0
  5  6  1  6
  5  7  1  0
  7  8  1  0
  5  9  1  0
  9 10  1  6
  9 11  1  0
 11 12  1  1
 13 12  1  1
 13 14  1  0
 14 15  1  0
 15 16  1  1
 16 17  1  0
 15 18  1  0
 18 19  1  1
 18 20  1  0
 20 21  1  1
 20 22  1  0
 22 23  1  6
 11  3  1  0
 22 13  1  0
M  END
>  <zinc_id>  (1) 
ZINC000003977952

>  <smiles>  (1) 
OC[C@H]1O[C@](O)(CO)[C@@H](O)[C@@H]1O[C@@H]1O[C@H](CO)[C@H](O)[C@H](O)[C@H]1O

$$$$
