
     RDKit          3D

 27 30  0  0  0  0  0  0  0  0999 V2000
   -3.0554    5.0173   -1.8519 Cl  0  0  0  0  0  0  0  0  0  0  0  0
   -2.7150    3.4693   -1.2328 C   0  0  0  0  0  0  0  0  0  0  0  0
   -3.3541    2.3712   -1.8284 C   0  0  0  0  0  0  0  0  0  0  0  0
   -3.0975    1.1051   -1.3859 C   0  0  0  0  0  0  0  0  0  0  0  0
   -2.1750    0.9286   -0.3133 C   0  0  0  0  0  0  0  0  0  0  0  0
   -1.8935   -0.6080   -0.2145 C   0  0  2  0  0  0  0  0  0  0  0  0
   -2.9520   -1.0192    0.9301 C   0  0  0  0  0  0  0  0  0  0  0  0
   -2.8710   -2.4416    1.1872 N   0  0  0  0  0  0  0  0  0  0  0  0
   -3.7814   -3.3195    0.6153 C   0  0  0  0  0  0  0  0  0  0  0  0
   -3.4598   -4.6002    1.0056 C   0  0  0  0  0  0  0  0  0  0  0  0
   -2.3838   -4.4862    1.7823 N   0  0  0  0  0  0  0  0  0  0  0  0
   -2.0321   -3.1834    1.8930 C   0  0  0  0  0  0  0  0  0  0  0  0
   -0.6277   -0.7766    0.3757 O   0  0  0  0  0  0  0  0  0  0  0  0
    0.3024   -0.1408   -0.4289 C   0  0  0  0  0  0  0  0  0  0  0  0
    1.7090   -0.4510    0.0753 C   0  0  0  0  0  0  0  0  0  0  0  0
    1.8745   -1.4076    1.0434 C   0  0  0  0  0  0  0  0  0  0  0  0
    3.5842   -1.4320    1.2329 S   0  0  0  0  0  0  0  0  0  0  0  0
    4.0120   -0.2459    0.0976 C   0  0  0  0  0  0  0  0  0  0  0  0
    2.8398    0.1372   -0.3998 C   0  0  0  0  0  0  0  0  0  0  0  0
    2.8821    1.1726   -1.3972 C   0  0  0  0  0  0  0  0  0  0  0  0
    4.0820    1.7009   -1.7746 C   0  0  0  0  0  0  0  0  0  0  0  0
    5.2831    1.3149   -1.2752 C   0  0  0  0  0  0  0  0  0  0  0  0
    5.2340    0.3146   -0.3141 C   0  0  0  0  0  0  0  0  0  0  0  0
    6.6822   -0.3587    0.4569 Cl  0  0  0  0  0  0  0  0  0  0  0  0
   -1.6111    1.9431    0.2191 C   0  0  0  0  0  0  0  0  0  0  0  0
   -0.6300    1.7707    1.7114 Cl  0  0  0  0  0  0  0  0  0  0  0  0
   -1.8460    3.2250   -0.2092 C   0  0  0  0  0  0  0  0  0  0  0  0
  1  2  1  0
  2  3  2  0
  3  4  1  0
  4  5  2  0
  5  6  1  0
  6  7  1  1
  7  8  1  0
  8  9  1  0
  9 10  2  0
 10 11  1  0
 11 12  2  0
  6 13  1  0
 13 14  1  0
 14 15  1  0
 15 16  2  0
 16 17  1  0
 17 18  1  0
 18 19  2  0
 19 20  1  0
 20 21  2  0
 21 22  1  0
 22 23  2  0
 23 24  1  0
  5 25  1  0
 25 26  1  0
 25 27  2  0
 27  2  1  0
 12  8  1  0
 19 15  1  0
 23 18  1  0
M  END
>  <zinc_id>  (1) 
ZINC000002016037

>  <smiles>  (1) 
Clc1ccc([C@H](Cn2ccnc2)OCc2csc3c(Cl)cccc23)c(Cl)c1

$$$$
