
     RDKit          3D

 18 20  0  0  0  0  0  0  0  0999 V2000
   -1.2855    2.7973   -0.3933 N   0  0  0  0  0  0  0  0  0  0  0  0
   -0.0319    2.1282   -0.3528 C   0  0  0  0  0  0  0  0  0  0  0  0
    1.0622    2.7227   -0.5312 O   0  0  0  0  0  0  0  0  0  0  0  0
    0.0287    0.7260   -0.1024 N   0  0  0  0  0  0  0  0  0  0  0  0
    1.2990    0.1037   -0.0714 C   0  0  0  0  0  0  0  0  0  0  0  0
    2.2811    1.0638    0.0452 C   0  0  0  0  0  0  0  0  0  0  0  0
    3.5932    0.6703    0.0932 C   0  0  0  0  0  0  0  0  0  0  0  0
    3.8832   -0.6761    0.0228 C   0  0  0  0  0  0  0  0  0  0  0  0
    2.8915   -1.6277   -0.0938 C   0  0  0  0  0  0  0  0  0  0  0  0
    1.5710   -1.2520   -0.1434 C   0  0  0  0  0  0  0  0  0  0  0  0
    0.6425   -2.3779   -0.2677 C   0  0  0  0  0  0  0  0  0  0  0  0
   -0.6782   -2.4136   -0.1817 C   0  0  0  0  0  0  0  0  0  0  0  0
   -1.5664   -1.2751    0.0713 C   0  0  0  0  0  0  0  0  0  0  0  0
   -2.8716   -1.6365    0.3019 C   0  0  0  0  0  0  0  0  0  0  0  0
   -3.8518   -0.6894    0.5596 C   0  0  0  0  0  0  0  0  0  0  0  0
   -3.5190    0.6482    0.5871 C   0  0  0  0  0  0  0  0  0  0  0  0
   -2.2123    1.0248    0.3573 C   0  0  0  0  0  0  0  0  0  0  0  0
   -1.2356    0.0633    0.0993 C   0  0  0  0  0  0  0  0  0  0  0  0
  1  2  1  0
  2  3  2  0
  2  4  1  0
  4  5  1  0
  5  6  2  0
  6  7  1  0
  7  8  2  0
  8  9  1  0
  9 10  2  0
 10 11  1  0
 11 12  2  0
 12 13  1  0
 13 14  2  0
 14 15  1  0
 15 16  2  0
 16 17  1  0
 17 18  2  0
 18  4  1  0
 10  5  1  0
 18 13  1  0
M  END
>  <zinc_id>  (1) 
ZINC000000004785

>  <smiles>  (1) 
NC(=O)N1c2ccccc2C=Cc2ccccc21

$$$$
