
     RDKit          3D

 19 20  0  0  0  0  0  0  0  0999 V2000
    4.0306    1.7692    1.7212 C   0  0  0  0  0  0  0  0  0  0  0  0
    3.7407    0.5178    1.0883 N   0  0  0  0  0  0  0  0  0  0  0  0
    3.5526    0.5725   -0.3125 C   0  0  0  0  0  0  0  0  0  0  0  0
    2.9733   -0.3947    1.8492 C   0  0  0  0  0  0  0  0  0  0  0  0
    1.5837    0.0823    2.0391 C   0  0  0  0  0  0  0  0  0  0  0  0
    0.8657    0.2443    0.8616 O   0  0  0  0  0  0  0  0  0  0  0  0
    0.5898   -0.8370    0.0574 C   0  0  0  0  0  0  0  0  0  0  0  0
    0.9875   -2.1190    0.3734 C   0  0  0  0  0  0  0  0  0  0  0  0
    0.7037   -3.1910   -0.4377 C   0  0  0  0  0  0  0  0  0  0  0  0
    0.0051   -3.0026   -1.6033 C   0  0  0  0  0  0  0  0  0  0  0  0
   -0.4013   -1.7420   -1.9416 C   0  0  0  0  0  0  0  0  0  0  0  0
   -0.1125   -0.6646   -1.1185 C   0  0  0  0  0  0  0  0  0  0  0  0
   -0.5875    0.6588   -1.5466 C   0  0  0  0  0  0  0  0  0  0  0  0
   -1.7917    1.0370   -0.8116 C   0  0  0  0  0  0  0  0  0  0  0  0
   -3.0151    0.6597   -1.3776 C   0  0  0  0  0  0  0  0  0  0  0  0
   -4.2090    0.9750   -0.7608 C   0  0  0  0  0  0  0  0  0  0  0  0
   -4.1649    1.6650    0.4167 C   0  0  0  0  0  0  0  0  0  0  0  0
   -2.9737    2.0435    0.9882 C   0  0  0  0  0  0  0  0  0  0  0  0
   -1.7770    1.7257    0.3671 C   0  0  0  0  0  0  0  0  0  0  0  0
  1  2  1  0
  2  3  1  0
  2  4  1  0
  4  5  1  0
  5  6  1  0
  6  7  1  0
  7  8  2  0
  8  9  1  0
  9 10  2  0
 10 11  1  0
 11 12  2  0
 12 13  1  0
 13 14  1  0
 14 15  2  0
 15 16  1  0
 16 17  2  0
 17 18  1  0
 18 19  2  0
 12  7  1  0
 19 14  1  0
M  END
>  <zinc_id>  (1) 
ZINC000000001931

>  <smiles>  (1) 
CN(C)CCOc1ccccc1Cc1ccccc1

$$$$
