
     RDKit          3D

 17 18  0  0  0  0  0  0  0  0999 V2000
   -5.4960    1.2991   -1.2291 O   0  0  0  0  0  0  0  0  0  0  0  0
   -4.5132    0.9127   -0.5247 C   0  0  0  0  0  0  0  0  0  0  0  0
   -3.2394    0.4111   -1.0792 C   0  0  0  0  0  0  0  0  0  0  0  0
   -2.4331    0.1043    0.0598 N   0  0  0  0  0  0  0  0  0  0  0  0
   -1.1242   -0.3991    0.0471 N   0  0  0  0  0  0  0  0  0  0  0  0
   -0.0812    0.3390   -0.0987 C   0  0  0  0  0  0  0  0  0  0  0  0
    1.2575   -0.2312   -0.1051 C   0  0  0  0  0  0  0  0  0  0  0  0
    1.6364   -1.5492    0.0310 C   0  0  0  0  0  0  0  0  0  0  0  0
    3.0295   -1.5855   -0.0421 C   0  0  0  0  0  0  0  0  0  0  0  0
    3.4189   -0.2800   -0.2194 C   0  0  0  0  0  0  0  0  0  0  0  0
    4.7624    0.1469   -0.3451 N   0  0  0  0  0  0  0  0  0  0  0  0
    5.0009    1.3756   -0.5049 O   0  0  0  0  0  0  0  0  0  0  0  0
    5.7677   -0.7780   -0.2906 O   0  0  0  0  0  0  0  0  0  0  0  0
    2.3460    0.4781   -0.2502 O   0  0  0  0  0  0  0  0  0  0  0  0
   -3.1504    0.3835    1.2340 C   0  0  0  0  0  0  0  0  0  0  0  0
   -2.7608    0.2323    2.4361 O   0  0  0  0  0  0  0  0  0  0  0  0
   -4.4209    0.8772    0.8811 N   0  0  0  0  0  0  0  0  0  0  0  0
  1  2  2  0
  2  3  1  0
  3  4  1  0
  4  5  1  0
  5  6  2  0
  6  7  1  0
  7  8  2  0
  8  9  1  0
  9 10  2  0
 10 11  1  0
 11 12  2  0
 11 13  1  0
 10 14  1  0
  4 15  1  0
 15 16  2  0
 15 17  1  0
 17  2  1  0
 14  7  1  0
M  CHG  2  11   1  13  -1
M  END
>  <zinc_id>  (1) 
ZINC000003875368

>  <smiles>  (1) 
O=C1CN(/N=C/c2ccc([N+](=O)[O-])o2)C(=O)N1

$$$$
