
     RDKit          3D

 27 29  0  0  0  0  0  0  0  0999 V2000
   -6.6119    2.0652    0.6980 C   0  0  0  0  0  0  0  0  0  0  0  0
   -6.0821    0.8478   -0.2942 C   0  0  1  0  0  0  0  0  0  0  0  0
   -6.6045    1.5849   -1.5516 O   0  0  0  0  0  0  0  0  0  0  0  0
   -4.5139    1.5188   -0.4867 C   0  0  1  0  0  0  0  0  0  0  0  0
   -4.1445    1.4597    1.0304 C   0  0  0  0  0  0  0  0  0  0  0  0
   -4.5289    1.9888    2.0623 O   0  0  0  0  0  0  0  0  0  0  0  0
   -3.1203    0.5060    0.8216 N   0  0  0  0  0  0  0  0  0  0  0  0
   -1.9868   -0.3764    0.8003 C   0  0  0  0  0  0  0  0  0  0  0  0
   -1.6035   -1.0609    2.0393 C   0  0  0  0  0  0  0  0  0  0  0  0
   -2.1795   -0.8214    3.1538 O   0  0  0  0  0  0  0  0  0  0  0  0
   -0.6161   -2.0083    2.1240 O   0  0  0  0  0  0  0  0  0  0  0  0
   -1.4673   -0.5030   -0.3422 C   0  0  0  0  0  0  0  0  0  0  0  0
   -0.1223   -1.3756   -1.0361 S   0  0  0  0  0  0  0  0  0  0  0  0
    1.3254   -1.6281    0.1084 C   0  0  2  0  0  0  0  0  0  0  0  0
    1.7729   -0.0971    0.2148 C   0  0  0  0  0  0  0  0  0  0  0  0
    3.1453   -0.0688    0.3607 N   0  0  0  0  0  0  0  0  0  0  0  0
    3.5902   -1.5851    0.2480 C   0  0  2  0  0  0  0  0  0  0  0  0
    4.8042   -1.2248   -0.8282 C   0  0  0  0  0  0  0  0  0  0  0  0
    5.5883   -0.3203   -0.0079 N   0  0  0  0  0  0  0  0  0  0  0  0
    6.9399    0.1917   -0.9544 S   0  0  0  0  0  0  0  0  0  0  0  0
    8.2387   -0.9363   -0.7167 N   0  0  0  0  0  0  0  0  0  0  0  0
    7.3982    1.5678   -0.5607 O   0  0  0  0  0  0  0  0  0  0  0  0
    6.5399    0.1214   -2.3880 O   0  0  0  0  0  0  0  0  0  0  0  0
    2.4752   -1.8823   -0.9630 C   0  0  0  0  0  0  0  0  0  0  0  0
   -2.4168    0.3190   -1.4056 C   0  0  2  0  0  0  0  0  0  0  0  0
   -2.0099    1.7513   -0.7535 C   0  0  0  0  0  0  0  0  0  0  0  0
   -3.8099   -0.0341   -0.5011 C   0  0  2  0  0  0  0  0  0  0  0  0
  2  1  1  1
  2  3  1  0
  2  4  1  0
  4  5  1  1
  5  6  2  0
  5  7  1  0
  7  8  1  0
  8  9  1  0
  9 10  2  0
  9 11  1  0
  8 12  2  0
 12 13  1  0
 14 13  1  6
 14 15  1  0
 15 16  1  0
 16 17  1  0
 17 18  1  6
 18 19  1  0
 19 20  1  0
 20 21  1  0
 20 22  2  0
 20 23  2  0
 17 24  1  0
 12 25  1  0
 25 26  1  1
 25 27  1  0
 27  4  1  0
 27  7  1  1
 24 14  1  0
M  END
>  <zinc_id>  (1) 
ZINC000003922770

>  <smiles>  (1) 
C[C@@H](O)[C@H]1C(=O)N2C(C(=O)O)=C(S[C@@H]3CN[C@H](CNS(N)(=O)=O)C3)[C@H](C)[C@H]12

$$$$
