
     RDKit          3D

 26 27  0  0  0  0  0  0  0  0999 V2000
    2.3170    4.6373   -0.1651 C   0  0  0  0  0  0  0  0  0  0  0  0
    2.5904    3.2817   -0.3353 C   0  0  0  0  0  0  0  0  0  0  0  0
    3.2739    2.6726    0.6362 O   0  0  0  0  0  0  0  0  0  0  0  0
    2.2239    2.5070   -1.3878 O   0  0  0  0  0  0  0  0  0  0  0  0
    2.4640    1.1209   -1.5878 C   0  0  0  0  0  0  0  0  0  0  0  0
    1.6973    0.5215   -0.2194 C   0  0  1  0  0  0  0  0  0  0  0  0
    0.3341    1.1358   -0.7603 O   0  0  0  0  0  0  0  0  0  0  0  0
   -0.0222    0.6536    0.6071 C   0  0  1  0  0  0  0  0  0  0  0  0
   -1.6021    0.8915    0.4685 N   0  0  0  0  0  0  0  0  0  0  0  0
   -2.1839    1.4475    1.5311 C   0  0  0  0  0  0  0  0  0  0  0  0
   -3.5494    1.6155    1.4633 C   0  0  0  0  0  0  0  0  0  0  0  0
   -4.2550    1.2077    0.3243 C   0  0  0  0  0  0  0  0  0  0  0  0
   -5.4855    1.3380    0.2260 O   0  0  0  0  0  0  0  0  0  0  0  0
   -3.5435    0.6602   -0.6872 N   0  0  0  0  0  0  0  0  0  0  0  0
   -2.2165    0.5063   -0.6133 C   0  0  0  0  0  0  0  0  0  0  0  0
   -1.6210   -0.0169   -1.5930 O   0  0  0  0  0  0  0  0  0  0  0  0
   -0.2017   -1.0068    0.1194 C   0  0  2  0  0  0  0  0  0  0  0  0
    0.5893   -1.6628    1.2434 O   0  0  0  0  0  0  0  0  0  0  0  0
    0.0183   -2.4238    2.1951 C   0  0  0  0  0  0  0  0  0  0  0  0
    0.8266   -3.1320    3.1977 C   0  0  0  0  0  0  0  0  0  0  0  0
   -1.2174   -2.5043    2.1869 O   0  0  0  0  0  0  0  0  0  0  0  0
    1.2020   -0.9200   -1.0011 C   0  0  2  0  0  0  0  0  0  0  0  0
    2.1227   -1.8199   -0.3051 O   0  0  0  0  0  0  0  0  0  0  0  0
    2.0600   -3.1725   -0.8431 C   0  0  0  0  0  0  0  0  0  0  0  0
    2.8666   -4.2199   -0.2312 C   0  0  0  0  0  0  0  0  0  0  0  0
    1.3121   -3.3181   -1.7977 O   0  0  0  0  0  0  0  0  0  0  0  0
  1  2  1  0
  2  3  2  0
  2  4  1  0
  4  5  1  0
  6  5  1  6
  6  7  1  0
  7  8  1  0
  8  9  1  6
  9 10  1  0
 10 11  2  0
 11 12  1  0
 12 13  2  0
 12 14  1  0
 14 15  1  0
 15 16  2  0
  8 17  1  0
 17 18  1  1
 18 19  1  0
 19 20  1  0
 19 21  2  0
 17 22  1  0
 22 23  1  1
 23 24  1  0
 24 25  1  0
 24 26  2  0
 22  6  1  0
 15  9  1  0
M  END
>  <zinc_id>  (1) 
ZINC000003843198

>  <smiles>  (1) 
CC(=O)OC[C@H]1O[C@@H](n2ccc(=O)[nH]c2=O)[C@H](OC(C)=O)[C@@H]1OC(C)=O

$$$$
