
     RDKit          3D

 21 23  0  0  0  0  0  0  0  0999 V2000
    2.2788    3.4294    0.5883 N   0  0  0  0  0  0  0  0  0  0  0  0
    2.3501    2.3909    0.2924 C   0  0  0  0  0  0  0  0  0  0  0  0
    2.4650    0.9872   -0.0868 C   0  0  0  0  0  0  0  0  0  0  0  0
    1.4357    0.2476   -0.3665 C   0  0  0  0  0  0  0  0  0  0  0  0
    1.3959   -1.4680   -0.8423 S   0  0  0  0  0  0  0  0  0  0  0  0
   -0.4167   -1.7050   -1.0329 C   0  0  0  0  0  0  0  0  0  0  0  0
   -0.9862   -0.9444    0.2309 C   0  0  2  0  0  0  0  0  0  0  0  0
   -2.4071   -0.7191   -0.2481 C   0  0  0  0  0  0  0  0  0  0  0  0
   -2.8293   -0.9373   -1.5367 C   0  0  0  0  0  0  0  0  0  0  0  0
   -4.1369   -0.7292   -1.9358 C   0  0  0  0  0  0  0  0  0  0  0  0
   -5.0630   -0.2911   -1.0368 C   0  0  0  0  0  0  0  0  0  0  0  0
   -6.7490   -0.0300   -1.5217 Cl  0  0  0  0  0  0  0  0  0  0  0  0
   -4.6672   -0.0623    0.2691 C   0  0  0  0  0  0  0  0  0  0  0  0
   -3.3532   -0.2796    0.6402 C   0  0  0  0  0  0  0  0  0  0  0  0
   -2.9494    0.0348    2.3348 Cl  0  0  0  0  0  0  0  0  0  0  0  0
   -0.2716    0.7552   -0.3443 S   0  0  0  0  0  0  0  0  0  0  0  0
    3.7487    0.3639   -0.1591 N   0  0  0  0  0  0  0  0  0  0  0  0
    4.5389   -0.0292    0.8589 C   0  0  0  0  0  0  0  0  0  0  0  0
    5.6814   -0.5782    0.3052 C   0  0  0  0  0  0  0  0  0  0  0  0
    5.5587   -0.5058   -1.0536 N   0  0  0  0  0  0  0  0  0  0  0  0
    4.3764    0.0700   -1.3063 C   0  0  0  0  0  0  0  0  0  0  0  0
  1  2  3  0
  2  3  1  0
  3  4  2  0
  4  5  1  0
  5  6  1  0
  6  7  1  0
  7  8  1  6
  8  9  2  0
  9 10  1  0
 10 11  2  0
 11 12  1  0
 11 13  1  0
 13 14  2  0
 14 15  1  0
  7 16  1  0
  3 17  1  0
 17 18  1  0
 18 19  2  0
 19 20  1  0
 20 21  2  0
 16  4  1  0
 21 17  1  0
 14  8  1  0
M  END
>  <zinc_id>  (1) 
ZINC000008383240

>  <smiles>  (1) 
N#C/C(=C1/SC[C@H](c2ccc(Cl)cc2Cl)S1)n1ccnc1

$$$$
