
     RDKit          3D

 16 17  0  0  0  0  0  0  0  0999 V2000
    4.8238    0.5874    0.2334 N   0  0  0  0  0  0  0  0  0  0  0  0
    3.4354    0.3451    0.1922 C   0  0  0  0  0  0  0  0  0  0  0  0
    2.6549    0.2962    1.3127 N   0  0  0  0  0  0  0  0  0  0  0  0
    1.3518    0.0638    1.2600 N   0  0  0  0  0  0  0  0  0  0  0  0
    0.6962   -0.1386    0.1225 C   0  0  0  0  0  0  0  0  0  0  0  0
   -0.7246   -0.3901   -0.0113 C   0  0  0  0  0  0  0  0  0  0  0  0
   -1.1588   -1.5218   -0.6650 C   0  0  0  0  0  0  0  0  0  0  0  0
   -2.5007   -1.8196   -0.8306 C   0  0  0  0  0  0  0  0  0  0  0  0
   -3.4512   -0.9534   -0.3286 C   0  0  0  0  0  0  0  0  0  0  0  0
   -3.0494    0.1846    0.3272 C   0  0  0  0  0  0  0  0  0  0  0  0
   -4.2997    1.2869    0.9576 Cl  0  0  0  0  0  0  0  0  0  0  0  0
   -1.7079    0.4397    0.4721 C   0  0  0  0  0  0  0  0  0  0  0  0
   -1.1935    1.8641    1.3049 Cl  0  0  0  0  0  0  0  0  0  0  0  0
    1.4824   -0.0919   -1.0382 C   0  0  0  0  0  0  0  0  0  0  0  0
    0.8579   -0.2919   -2.3184 N   0  0  0  0  0  0  0  0  0  0  0  0
    2.7833    0.1393   -0.9905 N   0  0  0  0  0  0  0  0  0  0  0  0
  1  2  1  0
  2  3  2  0
  3  4  1  0
  4  5  2  0
  5  6  1  0
  6  7  2  0
  7  8  1  0
  8  9  2  0
  9 10  1  0
 10 11  1  0
 10 12  2  0
 12 13  1  0
  5 14  1  0
 14 15  1  0
 14 16  2  0
 16  2  1  0
 12  6  1  0
M  END
>  <zinc_id>  (1) 
ZINC000000013156

>  <smiles>  (1) 
Nc1nnc(-c2cccc(Cl)c2Cl)c(N)n1

$$$$
