
     RDKit          3D

 10 10  0  0  0  0  0  0  0  0999 V2000
    3.5646    0.6542   -0.3972 C   0  0  0  0  0  0  0  0  0  0  0  0
    2.1538    0.7516   -0.4156 O   0  0  0  0  0  0  0  0  0  0  0  0
    1.3412   -0.3583   -0.2638 C   0  0  0  0  0  0  0  0  0  0  0  0
    1.8773   -1.4787   -0.1059 O   0  0  0  0  0  0  0  0  0  0  0  0
   -0.1008   -0.1518   -0.2975 C   0  0  0  0  0  0  0  0  0  0  0  0
   -0.9906   -1.2209   -0.1516 C   0  0  0  0  0  0  0  0  0  0  0  0
   -2.3383   -0.9390   -0.1955 C   0  0  0  0  0  0  0  0  0  0  0  0
   -2.8472    0.3245   -0.3733 C   0  0  0  0  0  0  0  0  0  0  0  0
   -1.9859    1.3370   -0.5114 N   0  0  0  0  0  0  0  0  0  0  0  0
   -0.6738    1.0815   -0.4712 C   0  0  0  0  0  0  0  0  0  0  0  0
  1  2  1  0
  2  3  1  0
  3  4  2  0
  3  5  1  0
  5  6  2  0
  6  7  1  0
  7  8  2  0
  8  9  1  0
  9 10  2  0
 10  5  1  0
M  END
>  <zinc_id>  (1) 
ZINC000000001706

>  <smiles>  (1) 
COC(=O)c1cccnc1

$$$$
