
     RDKit          3D

 21 23  0  0  0  0  0  0  0  0999 V2000
    4.3294   -2.0573   -0.6761 C   0  0  0  0  0  0  0  0  0  0  0  0
    3.5577   -1.6725    0.4662 N   0  0  0  0  0  0  0  0  0  0  0  0
    4.2793   -1.9731    1.6782 C   0  0  0  0  0  0  0  0  0  0  0  0
    3.1924   -0.2964    0.3611 C   0  0  0  0  0  0  0  0  0  0  0  0
    2.2065   -0.0259   -0.7538 C   0  0  0  0  0  0  0  0  0  0  0  0
    1.0009   -0.8380   -0.4471 C   0  0  0  0  0  0  0  0  0  0  0  0
   -0.1387   -0.1933   -0.2664 C   0  0  0  0  0  0  0  0  0  0  0  0
   -0.1112    1.2785   -0.3855 C   0  0  0  0  0  0  0  0  0  0  0  0
    0.9380    1.6368   -1.2426 C   0  0  0  0  0  0  0  0  0  0  0  0
    1.0845    2.9947   -1.4513 C   0  0  0  0  0  0  0  0  0  0  0  0
    0.2676    3.9310   -0.8666 C   0  0  0  0  0  0  0  0  0  0  0  0
   -0.7403    3.5183   -0.0384 C   0  0  0  0  0  0  0  0  0  0  0  0
   -0.9422    2.1991    0.2116 C   0  0  0  0  0  0  0  0  0  0  0  0
   -2.0691    1.9096    1.1304 C   0  0  0  0  0  0  0  0  0  0  0  0
   -2.8699    0.8198    0.7198 O   0  0  0  0  0  0  0  0  0  0  0  0
   -2.5833   -0.5058    0.4864 C   0  0  0  0  0  0  0  0  0  0  0  0
   -3.5609   -1.4174    0.7043 C   0  0  0  0  0  0  0  0  0  0  0  0
   -3.3162   -2.7750    0.4813 C   0  0  0  0  0  0  0  0  0  0  0  0
   -2.0971   -3.2504    0.0384 C   0  0  0  0  0  0  0  0  0  0  0  0
   -1.0854   -2.3081   -0.1873 C   0  0  0  0  0  0  0  0  0  0  0  0
   -1.3418   -0.9747    0.0372 C   0  0  0  0  0  0  0  0  0  0  0  0
  1  2  1  0
  2  3  1  0
  2  4  1  0
  4  5  1  0
  5  6  1  0
  6  7  2  0
  7  8  1  0
  8  9  2  0
  9 10  1  0
 10 11  2  0
 11 12  1  0
 12 13  2  0
 13 14  1  0
 14 15  1  0
 15 16  1  0
 16 17  2  0
 17 18  1  0
 18 19  2  0
 19 20  1  0
 20 21  2  0
 21  7  1  0
 13  8  1  0
 21 16  1  0
M  END
>  <zinc_id>  (1) 
ZINC000000001331

>  <smiles>  (1) 
CN(C)CC/C=C1\c2ccccc2COc2ccccc21

$$$$
