
     RDKit          3D

 23 26  0  0  0  0  0  0  0  0999 V2000
   -3.8926    2.6462    0.8980 C   0  0  0  0  0  0  0  0  0  0  0  0
   -3.6052    1.5887    0.4364 C   0  0  0  0  0  0  0  0  0  0  0  0
   -3.2248    0.2780   -0.1285 C   0  0  2  0  0  0  0  0  0  0  0  0
   -4.1113    0.0175   -1.1643 O   0  0  0  0  0  0  0  0  0  0  0  0
   -3.4213   -0.8265    0.9024 C   0  0  0  0  0  0  0  0  0  0  0  0
   -2.0556   -1.4390    1.1466 C   0  0  0  0  0  0  0  0  0  0  0  0
   -1.2106   -0.0786    0.9863 C   0  0  1  0  0  0  0  0  0  0  0  0
    0.1918   -0.8189    0.4043 C   0  0  2  0  0  0  0  0  0  0  0  0
    0.6873   -1.2247    1.8775 C   0  0  0  0  0  0  0  0  0  0  0  0
    2.1052   -1.5637    1.6977 C   0  0  0  0  0  0  0  0  0  0  0  0
    2.8636   -0.9882    0.6295 C   0  0  0  0  0  0  0  0  0  0  0  0
    4.1551   -1.1982    0.4870 C   0  0  0  0  0  0  0  0  0  0  0  0
    4.9679   -0.6149   -0.6122 C   0  0  0  0  0  0  0  0  0  0  0  0
    4.6420    0.8424   -0.7282 C   0  0  0  0  0  0  0  0  0  0  0  0
    3.3183    1.2009   -0.1308 C   0  0  0  0  0  0  0  0  0  0  0  0
    2.2975   -0.0588   -0.4977 C   0  0  2  0  0  0  0  0  0  0  0  0
    1.0533    0.6268    0.4321 C   0  0  1  0  0  0  0  0  0  0  0  0
    0.3151    1.2689   -0.7830 C   0  0  0  0  0  0  0  0  0  0  0  0
    0.9474    1.5823   -1.8884 C   0  0  0  0  0  0  0  0  0  0  0  0
   -1.1421    1.5638   -0.7287 C   0  0  0  0  0  0  0  0  0  0  0  0
   -1.8008    0.2114   -0.4943 C   0  0  2  0  0  0  0  0  0  0  0  0
   -1.4357   -0.7934   -1.4643 C   0  0  0  0  0  0  0  0  0  0  0  0
   -1.6447   -2.2217   -1.2774 C   0  0  0  0  0  0  0  0  0  0  0  0
  1  2  3  0
  2  3  1  0
  3  4  1  6
  3  5  1  0
  5  6  1  0
  7  6  1  1
  7  8  1  0
  8  9  1  1
  9 10  1  0
 10 11  1  0
 11 12  2  0
 12 13  1  0
 13 14  1  0
 14 15  1  0
 16 15  1  1
 16 17  1  0
 17 18  1  6
 18 19  2  0
 18 20  1  0
 20 21  1  0
 21 22  1  6
 22 23  1  0
 21  3  1  0
 21  7  1  0
 17  8  1  0
 16 11  1  0
M  END
>  <zinc_id>  (1) 
ZINC000004097416

>  <smiles>  (1) 
C#C[C@]1(O)CC[C@H]2[C@@H]3CCC4=CCCC[C@@H]4[C@H]3C(=C)C[C@@]21CC

$$$$
