
     RDKit          2D

 15 15  0  0  0  0  0  0  0  0999 V2000
   -5.3951    1.2855    0.0000 C   0  0  0  0  0  0  0  0  0  0  0  0
   -4.3432    0.2162    0.0000 C   0  0  0  0  0  0  0  0  0  0  0  0
   -2.8912    0.5926    0.0000 C   0  0  0  0  0  0  0  0  0  0  0  0
   -1.8392   -0.4767    0.0000 C   0  0  0  0  0  0  0  0  0  0  0  0
   -0.3872   -0.1004    0.0000 N   0  0  0  0  0  0  0  0  0  0  0  0
    0.0129    1.3453    0.0000 C   0  0  0  0  0  0  0  0  0  0  0  0
    1.4649    1.7217    0.0000 C   0  0  0  0  0  0  0  0  0  0  0  0
    1.8649    3.1673    0.0000 O   0  0  0  0  0  0  0  0  0  0  0  0
    2.5168    0.6524    0.0000 C   0  0  0  0  0  0  0  0  0  0  0  0
    3.9688    1.0287    0.0000 O   0  0  0  0  0  0  0  0  0  0  0  0
    2.1168   -0.7933    0.0000 C   0  0  0  0  0  0  0  0  0  0  0  0
    3.1687   -1.8626    0.0000 O   0  0  0  0  0  0  0  0  0  0  0  0
    0.6647   -1.1697    0.0000 C   0  0  0  0  0  0  0  0  0  0  0  0
    0.2647   -2.6153    0.0000 C   0  0  0  0  0  0  0  0  0  0  0  0
   -1.1873   -2.9917    0.0000 O   0  0  0  0  0  0  0  0  0  0  0  0
  1  2  1  0
  2  3  1  0
  3  4  1  0
  4  5  1  0
  5  6  1  0
  6  7  1  0
  7  8  1  6
  7  9  1  0
  9 10  1  1
  9 11  1  0
 11 12  1  6
 11 13  1  0
 13 14  1  1
 14 15  1  0
 13  5  1  0
M  END
>  <zinc_id>  (1) 
ZINC000003794711

>  <smiles>  (1) 
CCCCN1C[C@H](O)[C@@H](O)[C@H](O)[C@H]1CO

$$$$
