
     RDKit          3D

 17 18  0  0  0  0  0  0  0  0999 V2000
    4.0952   -2.3411    1.0333 O   0  0  0  0  0  0  0  0  0  0  0  0
    3.3538   -1.3301    0.8603 C   0  0  0  0  0  0  0  0  0  0  0  0
    2.3904   -1.1617   -0.2514 C   0  0  0  0  0  0  0  0  0  0  0  0
    2.0732    0.2511   -0.3150 N   0  0  0  0  0  0  0  0  0  0  0  0
    1.5084    0.8629   -1.4092 N   0  0  0  0  0  0  0  0  0  0  0  0
    0.2875    0.9672   -1.6053 C   0  0  0  0  0  0  0  0  0  0  0  0
   -0.7213    0.4635   -0.7168 C   0  0  0  0  0  0  0  0  0  0  0  0
   -0.6007   -0.2027    0.4708 C   0  0  0  0  0  0  0  0  0  0  0  0
   -1.8395   -0.5001    0.9899 C   0  0  0  0  0  0  0  0  0  0  0  0
   -2.7257    0.0273    0.0432 C   0  0  0  0  0  0  0  0  0  0  0  0
   -4.1323   -0.0664    0.1982 N   0  0  0  0  0  0  0  0  0  0  0  0
   -4.6317   -0.6197    1.1794 O   0  0  0  0  0  0  0  0  0  0  0  0
   -4.9385    0.4675   -0.7594 O   0  0  0  0  0  0  0  0  0  0  0  0
   -2.0368    0.5701   -0.9177 O   0  0  0  0  0  0  0  0  0  0  0  0
    2.4862    0.7962    0.9334 C   0  0  0  0  0  0  0  0  0  0  0  0
    2.1699    1.9716    1.2875 O   0  0  0  0  0  0  0  0  0  0  0  0
    3.2618   -0.1555    1.6512 N   0  0  0  0  0  0  0  0  0  0  0  0
  1  2  2  0
  2  3  1  0
  3  4  1  0
  4  5  1  0
  5  6  2  0
  6  7  1  0
  7  8  2  0
  8  9  1  0
  9 10  2  0
 10 11  1  0
 11 12  2  0
 11 13  1  0
 10 14  1  0
  4 15  1  0
 15 16  2  0
 15 17  1  0
 17  2  1  0
 14  7  1  0
M  CHG  2  11   1  13  -1
M  END
>  <zinc_id>  (1) 
ZINC000007997568

>  <smiles>  (1) 
O=C1CN(/N=C\c2ccc([N+](=O)[O-])o2)C(=O)N1

$$$$
