
     RDKit          3D

 13 14  0  0  0  0  0  0  0  0999 V2000
    1.8025   -2.0816   -0.0239 O   0  0  0  0  0  0  0  0  0  0  0  0
    1.1986   -0.8248    0.0191 C   0  0  0  0  0  0  0  0  0  0  0  0
    1.9613    0.3199    0.1357 C   0  0  0  0  0  0  0  0  0  0  0  0
    4.0538    0.1209    0.2466 I   0  0  0  0  0  0  0  0  0  0  0  0
    1.3510    1.5559    0.1770 C   0  0  0  0  0  0  0  0  0  0  0  0
   -0.0420    1.6191    0.0988 C   0  0  0  0  0  0  0  0  0  0  0  0
   -0.8811    3.1590    0.1455 Cl  0  0  0  0  0  0  0  0  0  0  0  0
   -0.8157    0.4827   -0.0179 C   0  0  0  0  0  0  0  0  0  0  0  0
   -2.2039    0.5750   -0.0940 C   0  0  0  0  0  0  0  0  0  0  0  0
   -2.9770   -0.5700   -0.2112 C   0  0  0  0  0  0  0  0  0  0  0  0
   -2.3010   -1.7712   -0.2464 C   0  0  0  0  0  0  0  0  0  0  0  0
   -0.9592   -1.8404   -0.1716 N   0  0  0  0  0  0  0  0  0  0  0  0
   -0.1875   -0.7445   -0.0576 C   0  0  0  0  0  0  0  0  0  0  0  0
  1  2  1  0
  2  3  2  0
  3  4  1  0
  3  5  1  0
  5  6  2  0
  6  7  1  0
  6  8  1  0
  8  9  2  0
  9 10  1  0
 10 11  2  0
 11 12  1  0
 12 13  2  0
 13  2  1  0
 13  8  1  0
M  END
>  <zinc_id>  (1) 
ZINC000006409735

>  <smiles>  (1) 
Oc1c(I)cc(Cl)c2cccnc12

$$$$
