
     RDKit          3D

 31 33  0  0  0  0  0  0  0  0999 V2000
   -1.8664   -0.4418   -1.3034 C   0  0  0  0  0  0  0  0  0  0  0  0
   -2.0161   -0.2563    0.3238 C   0  0  1  0  0  0  0  0  0  0  0  0
   -0.4917    0.4054    0.5523 C   0  0  0  0  0  0  0  0  0  0  0  0
   -0.1537    1.1534   -0.4912 N   0  0  0  0  0  0  0  0  0  0  0  0
    1.1880    1.3297   -0.7565 C   0  0  0  0  0  0  0  0  0  0  0  0
    1.8957   -0.0755   -1.2619 C   0  0  2  0  0  0  0  0  0  0  0  0
    1.6806   -0.8439    0.1288 C   0  0  0  0  0  0  0  0  0  0  0  0
    2.0849   -2.2518    0.0619 C   0  0  0  0  0  0  0  0  0  0  0  0
    3.3529   -2.7652    0.1933 C   0  0  0  0  0  0  0  0  0  0  0  0
    3.6898   -4.0903    0.1974 C   0  0  0  0  0  0  0  0  0  0  0  0
    2.6093   -4.9715    0.0530 C   0  0  0  0  0  0  0  0  0  0  0  0
    1.3176   -4.5050   -0.0819 C   0  0  0  0  0  0  0  0  0  0  0  0
    1.0592   -3.2047   -0.0763 C   0  0  0  0  0  0  0  0  0  0  0  0
    3.3699    0.4538   -1.0412 C   0  0  0  0  0  0  0  0  0  0  0  0
    4.2900   -0.3542   -0.8894 O   0  0  0  0  0  0  0  0  0  0  0  0
    3.6683    1.8114   -1.0255 N   0  0  0  0  0  0  0  0  0  0  0  0
    4.9214    2.4354   -0.8491 C   0  0  0  0  0  0  0  0  0  0  0  0
    5.6551    2.2177    0.3849 C   0  0  0  0  0  0  0  0  0  0  0  0
    5.5597    1.1637    1.0639 O   0  0  0  0  0  0  0  0  0  0  0  0
    6.5305    3.2065    0.8817 O   0  0  0  0  0  0  0  0  0  0  0  0
   -0.8880    2.3426   -0.7907 C   0  0  0  0  0  0  0  0  0  0  0  0
   -2.3311    2.0128   -0.8518 C   0  0  0  0  0  0  0  0  0  0  0  0
   -2.7501    1.1905    0.3087 C   0  0  2  0  0  0  0  0  0  0  0  0
   -2.4451    1.8014    1.6398 C   0  0  0  0  0  0  0  0  0  0  0  0
   -4.2062    0.8611    0.2650 C   0  0  0  0  0  0  0  0  0  0  0  0
   -5.0599    1.8707    0.5994 C   0  0  0  0  0  0  0  0  0  0  0  0
   -6.4140    1.7283    0.5911 C   0  0  0  0  0  0  0  0  0  0  0  0
   -6.8857    0.4782    0.2146 C   0  0  0  0  0  0  0  0  0  0  0  0
   -6.0632   -0.5312   -0.1180 C   0  0  0  0  0  0  0  0  0  0  0  0
   -6.5946   -1.7959   -0.4981 O   0  0  0  0  0  0  0  0  0  0  0  0
   -4.7070   -0.3757   -0.1036 C   0  0  0  0  0  0  0  0  0  0  0  0
  2  1  1  6
  2  3  1  0
  3  4  1  0
  4  5  1  0
  6  5  1  1
  6  7  1  0
  7  8  1  0
  8  9  2  0
  9 10  1  0
 10 11  2  0
 11 12  1  0
 12 13  2  0
  6 14  1  0
 14 15  2  0
 14 16  1  0
 16 17  1  0
 17 18  1  0
 18 19  2  0
 18 20  1  0
  4 21  1  0
 21 22  1  0
 22 23  1  0
 23 24  1  1
 23 25  1  0
 25 26  2  0
 26 27  1  0
 27 28  2  0
 28 29  1  0
 29 30  1  0
 29 31  2  0
 23  2  1  0
 31 25  1  0
 13  8  1  0
M  END
>  <zinc_id>  (1) 
ZINC000003802417

>  <smiles>  (1) 
C[C@H]1CN(C[C@H](Cc2ccccc2)C(=O)NCC(=O)O)CC[C@@]1(C)c1cccc(O)c1

$$$$
