
     RDKit          3D

 21 22  0  0  0  0  0  0  0  0999 V2000
    1.3095   -3.0626    0.9732 C   0  0  0  0  0  0  0  0  0  0  0  0
    1.1323   -2.6226    0.6930 C   0  0  0  0  0  0  0  0  0  0  0  0
    0.5216   -1.5668   -0.1474 N   0  0  0  0  0  0  0  0  0  0  0  0
    1.1462   -1.4050   -1.4253 C   0  0  0  0  0  0  0  0  0  0  0  0
    2.3344   -0.5294   -1.2956 C   0  0  0  0  0  0  0  0  0  0  0  0
    3.1094   -0.5209   -0.1523 C   0  0  0  0  0  0  0  0  0  0  0  0
    4.2060    0.3027   -0.0789 C   0  0  0  0  0  0  0  0  0  0  0  0
    4.5651    1.1096   -1.0773 N   0  0  0  0  0  0  0  0  0  0  0  0
    3.8248    1.1133   -2.1922 C   0  0  0  0  0  0  0  0  0  0  0  0
    2.7228    0.3228   -2.3366 C   0  0  0  0  0  0  0  0  0  0  0  0
   -0.5560   -0.8667    0.3915 C   0  0  0  0  0  0  0  0  0  0  0  0
   -0.9857   -1.0817    1.4932 O   0  0  0  0  0  0  0  0  0  0  0  0
   -1.1397    0.2196   -0.5985 C   0  0  2  0  0  0  0  0  0  0  0  0
   -0.1888    1.4554   -0.0420 C   0  0  0  0  0  0  0  0  0  0  0  0
   -0.4605    1.6154    1.2808 O   0  0  0  0  0  0  0  0  0  0  0  0
   -2.4414    0.6541    0.1681 C   0  0  0  0  0  0  0  0  0  0  0  0
   -2.7754    1.9409    0.3565 C   0  0  0  0  0  0  0  0  0  0  0  0
   -3.9509    2.2203    1.0333 C   0  0  0  0  0  0  0  0  0  0  0  0
   -4.7387    1.1934    1.4907 C   0  0  0  0  0  0  0  0  0  0  0  0
   -4.4198   -0.1333    1.3111 C   0  0  0  0  0  0  0  0  0  0  0  0
   -3.2153   -0.3587    0.6175 C   0  0  0  0  0  0  0  0  0  0  0  0
  1  2  1  0
  2  3  1  0
  3  4  1  0
  4  5  1  0
  5  6  2  0
  6  7  1  0
  7  8  2  0
  8  9  1  0
  9 10  2  0
  3 11  1  0
 11 12  2  0
 11 13  1  0
 13 14  1  1
 14 15  1  0
 13 16  1  0
 16 17  2  0
 17 18  1  0
 18 19  2  0
 19 20  1  0
 20 21  2  0
 10  5  1  0
 21 16  1  0
M  END
>  <zinc_id>  (1) 
ZINC000000057533

>  <smiles>  (1) 
CCN(Cc1ccncc1)C(=O)[C@H](CO)c1ccccc1

$$$$
