
     RDKit          3D

 22 23  0  0  0  0  0  0  0  0999 V2000
   -5.9574    1.3576    1.6008 O   0  0  0  0  0  0  0  0  0  0  0  0
   -5.1547    0.4437    1.2859 C   0  0  0  0  0  0  0  0  0  0  0  0
   -3.9006    0.8449    0.6641 C   0  0  0  0  0  0  0  0  0  0  0  0
   -2.9703    0.0179    0.2826 C   0  0  0  0  0  0  0  0  0  0  0  0
   -1.7142    0.4562   -0.3428 C   0  0  0  0  0  0  0  0  0  0  0  0
   -1.4214    1.7843   -0.5755 C   0  0  0  0  0  0  0  0  0  0  0  0
   -0.2385    2.1862   -1.1636 C   0  0  0  0  0  0  0  0  0  0  0  0
    0.6858    1.2005   -1.5310 C   0  0  0  0  0  0  0  0  0  0  0  0
    0.4225   -0.1343   -1.3117 C   0  0  0  0  0  0  0  0  0  0  0  0
    1.6114   -1.3150   -1.7904 S   0  0  0  0  0  0  0  0  0  0  0  0
    0.9356   -2.5675   -2.3229 O   0  0  0  0  0  0  0  0  0  0  0  0
    2.4456   -0.7431   -2.9194 O   0  0  0  0  0  0  0  0  0  0  0  0
    2.6009   -1.6775   -0.4391 N   0  0  0  0  0  0  0  0  0  0  0  0
    3.4102   -0.7659    0.2391 C   0  0  0  0  0  0  0  0  0  0  0  0
    3.0288    0.4922    0.6391 C   0  0  0  0  0  0  0  0  0  0  0  0
    3.8074    1.3811    1.3029 C   0  0  0  0  0  0  0  0  0  0  0  0
    5.0990    1.0191    1.6177 C   0  0  0  0  0  0  0  0  0  0  0  0
    5.5447   -0.2368    1.2420 C   0  0  0  0  0  0  0  0  0  0  0  0
    4.7264   -1.1160    0.5679 C   0  0  0  0  0  0  0  0  0  0  0  0
   -0.7672   -0.4745   -0.7247 C   0  0  0  0  0  0  0  0  0  0  0  0
   -5.5135   -0.9043    1.5512 N   0  0  0  0  0  0  0  0  0  0  0  0
   -6.6807   -1.2490    2.1279 O   0  0  0  0  0  0  0  0  0  0  0  0
  1  2  2  0
  2  3  1  0
  3  4  2  0
  4  5  1  0
  5  6  2  0
  6  7  1  0
  7  8  2  0
  8  9  1  0
  9 10  1  0
 10 11  2  0
 10 12  2  0
 10 13  1  0
 13 14  1  0
 14 15  2  0
 15 16  1  0
 16 17  2  0
 17 18  1  0
 18 19  2  0
  9 20  2  0
  2 21  1  0
 21 22  1  0
 20  5  1  0
 19 14  1  0
M  END
>  <zinc_id>  (1) 
ZINC000003818726

>  <smiles>  (1) 
O=C(/C=C/c1cccc(S(=O)(=O)Nc2ccccc2)c1)NO

$$$$
