
     RDKit          3D

 25 28  0  0  0  0  0  0  0  0999 V2000
   -1.2983    5.1817    1.0668 C   0  0  0  0  0  0  0  0  0  0  0  0
   -1.0988    4.3264    1.0482 S   0  0  0  0  0  0  0  0  0  0  0  0
   -1.6689    2.7285    0.4551 C   0  0  0  0  0  0  0  0  0  0  0  0
   -2.8398    2.5968   -0.2592 C   0  0  0  0  0  0  0  0  0  0  0  0
   -3.2924    1.3884   -0.7204 C   0  0  0  0  0  0  0  0  0  0  0  0
   -2.5444    0.2635   -0.4573 C   0  0  0  0  0  0  0  0  0  0  0  0
   -1.3715    0.3133    0.2455 C   0  0  0  0  0  0  0  0  0  0  0  0
   -0.9649    1.5805    0.6887 C   0  0  0  0  0  0  0  0  0  0  0  0
   -0.5460   -0.8104    0.5679 N   0  0  0  0  0  0  0  0  0  0  0  0
    0.6446   -0.5268    1.3481 C   0  0  0  0  0  0  0  0  0  0  0  0
    1.3811    0.6809    0.8992 C   0  0  0  0  0  0  0  0  0  0  0  0
    1.8733    0.4549   -0.6441 C   0  0  2  0  0  0  0  0  0  0  0  0
    2.8279   -0.8423   -0.2833 C   0  0  0  0  0  0  0  0  0  0  0  0
    3.7771   -0.4068    0.7802 C   0  0  0  0  0  0  0  0  0  0  0  0
    4.9117    0.2781    0.0285 C   0  0  0  0  0  0  0  0  0  0  0  0
    4.1932    0.9768   -1.1263 C   0  0  0  0  0  0  0  0  0  0  0  0
    3.0185    1.5511   -0.5549 N   0  0  0  0  0  0  0  0  0  0  0  0
    2.5614    2.6534   -1.3511 C   0  0  0  0  0  0  0  0  0  0  0  0
   -0.8317   -2.1392    0.2027 C   0  0  0  0  0  0  0  0  0  0  0  0
    0.0205   -3.1809    0.5894 C   0  0  0  0  0  0  0  0  0  0  0  0
   -0.2142   -4.4971    0.2873 C   0  0  0  0  0  0  0  0  0  0  0  0
   -1.3278   -4.8704   -0.4296 C   0  0  0  0  0  0  0  0  0  0  0  0
   -2.1720   -3.8361   -0.8123 C   0  0  0  0  0  0  0  0  0  0  0  0
   -1.9306   -2.5285   -0.5072 C   0  0  0  0  0  0  0  0  0  0  0  0
   -3.1082   -1.3357   -1.0620 S   0  0  0  0  0  0  0  0  0  0  0  0
  1  2  1  0
  2  3  1  0
  3  4  2  0
  4  5  1  0
  5  6  2  0
  6  7  1  0
  7  8  2  0
  7  9  1  0
  9 10  1  0
 10 11  1  0
 12 11  1  1
 12 13  1  0
 13 14  1  0
 14 15  1  0
 15 16  1  0
 16 17  1  0
 17 18  1  0
  9 19  1  0
 19 20  2  0
 20 21  1  0
 21 22  2  0
 22 23  1  0
 23 24  2  0
 24 25  1  0
  8  3  1  0
 17 12  1  0
 24 19  1  0
 25  6  1  0
M  END
>  <zinc_id>  (1) 
ZINC000001530695

>  <smiles>  (1) 
CSc1ccc2c(c1)N(CC[C@@H]1CCCCN1C)c1ccccc1S2

$$$$
