
     RDKit          3D

 13 15  0  0  0  0  0  0  0  0999 V2000
   -0.7819    2.7681   -0.5851 C   0  0  0  0  0  0  0  0  0  0  0  0
   -0.4339    1.3650   -0.2117 C   0  0  2  0  0  0  0  0  0  0  0  0
   -0.8372    1.1472    1.2429 C   0  0  0  0  0  0  0  0  0  0  0  0
   -0.4564   -0.2556    1.6326 C   0  0  2  0  0  0  0  0  0  0  0  0
    1.0323   -0.4961    1.5208 C   0  0  0  0  0  0  0  0  0  0  0  0
    1.4288   -0.2141    0.0935 C   0  0  2  0  0  0  0  0  0  0  0  0
    2.8506   -0.4373   -0.0213 N   0  0  0  0  0  0  0  0  0  0  0  0
    1.0612    1.1944   -0.2799 C   0  0  0  0  0  0  0  0  0  0  0  0
    0.7100   -1.1938   -0.8125 C   0  0  0  0  0  0  0  0  0  0  0  0
   -0.7790   -1.0137   -0.6784 C   0  0  1  0  0  0  0  0  0  0  0  0
   -1.4460   -1.9937   -1.6075 C   0  0  0  0  0  0  0  0  0  0  0  0
   -1.1613   -1.2539    0.7577 C   0  0  0  0  0  0  0  0  0  0  0  0
   -1.1871    0.3834   -1.0510 C   0  0  0  0  0  0  0  0  0  0  0  0
  2  1  1  6
  2  3  1  0
  4  3  1  6
  4  5  1  0
  5  6  1  0
  6  7  1  1
  6  8  1  0
  6  9  1  0
  9 10  1  0
 10 11  1  6
 10 12  1  0
 10 13  1  0
  8  2  1  0
 13  2  1  0
 12  4  1  0
M  END
>  <zinc_id>  (1) 
ZINC000003812933

>  <smiles>  (1) 
C[C@@]12CC3CC(N)(C1)C[C@](C)(C3)C2

$$$$
