
     RDKit          3D

  9  8  0  0  0  0  0  0  0  0999 V2000
    2.1141    0.1240    0.9025 C   0  0  0  0  0  0  0  0  0  0  0  0
    1.0166    0.3133   -0.0387 C   0  0  0  0  0  0  0  0  0  0  0  0
    1.1844    1.6938   -0.5999 C   0  0  0  0  0  0  0  0  0  0  0  0
    0.9158   -0.9559   -1.2413 S   0  0  0  0  0  0  0  0  0  0  0  0
   -0.3083    0.3581    0.9223 C   0  0  2  0  0  0  0  0  0  0  0  0
   -0.1295   -1.0647    1.5306 N   0  0  0  0  0  0  0  0  0  0  0  0
   -1.3344   -0.0722   -0.1973 C   0  0  0  0  0  0  0  0  0  0  0  0
   -1.6765    0.9162   -0.8827 O   0  0  0  0  0  0  0  0  0  0  0  0
   -1.7822   -1.3126   -0.3955 O   0  0  0  0  0  0  0  0  0  0  0  0
  1  2  1  0
  2  3  1  0
  2  4  1  0
  2  5  1  0
  5  6  1  1
  5  7  1  0
  7  8  2  0
  7  9  1  0
M  END
>  <zinc_id>  (1) 
ZINC000000114124

>  <smiles>  (1) 
CC(C)(S)[C@H](N)C(=O)O

$$$$
