
     RDKit          3D

 37 41  0  0  0  0  0  0  0  0999 V2000
    4.6673   -1.4708    3.6525 C   0  0  0  0  0  0  0  0  0  0  0  0
    5.3595   -0.8247    2.5661 C   0  0  0  0  0  0  0  0  0  0  0  0
    6.6737   -0.4919    2.6281 N   0  0  0  0  0  0  0  0  0  0  0  0
    6.9917    0.0768    1.4927 N   0  0  0  0  0  0  0  0  0  0  0  0
    5.9087    0.1082    0.7207 C   0  0  0  0  0  0  0  0  0  0  0  0
    5.8244    0.6758   -0.6539 C   0  0  0  0  0  0  0  0  0  0  0  0
    6.6222   -0.1704   -1.6267 C   0  0  0  0  0  0  0  0  0  0  0  0
    6.4690    2.0477   -0.6796 C   0  0  0  0  0  0  0  0  0  0  0  0
    4.8651   -0.4489    1.3604 N   0  0  0  0  0  0  0  0  0  0  0  0
    3.5003   -0.6197    0.8854 C   0  0  1  0  0  0  0  0  0  0  0  0
    2.5995   -0.5577    1.9187 C   0  0  0  0  0  0  0  0  0  0  0  0
    1.0456   -0.1973    1.5957 C   0  0  1  0  0  0  0  0  0  0  0  0
    1.2004    1.4416    1.7321 C   0  0  0  0  0  0  0  0  0  0  0  0
    2.3617    1.6204    0.9460 C   0  0  0  0  0  0  0  0  0  0  0  0
    1.9847    0.8455   -0.4635 C   0  0  1  0  0  0  0  0  0  0  0  0
    3.2921   -0.1345   -0.4574 C   0  0  0  0  0  0  0  0  0  0  0  0
    1.0388   -0.1798    0.0835 N   0  0  0  0  0  0  0  0  0  0  0  0
    0.3087   -0.9879   -0.6221 C   0  0  0  0  0  0  0  0  0  0  0  0
   -1.1833   -0.6948   -0.4939 C   0  0  0  0  0  0  0  0  0  0  0  0
   -1.4192    0.8164   -1.0245 C   0  0  2  0  0  0  0  0  0  0  0  0
   -2.9248    0.8854   -0.7913 N   0  0  0  0  0  0  0  0  0  0  0  0
   -3.7710   -0.1245   -0.4762 C   0  0  0  0  0  0  0  0  0  0  0  0
   -3.1757   -1.2275   -0.3818 O   0  0  0  0  0  0  0  0  0  0  0  0
   -5.2474   -0.0289   -0.2516 C   0  0  0  0  0  0  0  0  0  0  0  0
   -5.5258    0.9622    0.8292 C   0  0  0  0  0  0  0  0  0  0  0  0
   -5.5230    0.2025    2.1418 C   0  0  0  0  0  0  0  0  0  0  0  0
   -6.7377   -0.6957    2.1842 C   0  0  0  0  0  0  0  0  0  0  0  0
   -7.8320    0.0639    2.5325 F   0  0  0  0  0  0  0  0  0  0  0  0
   -6.5190   -1.6152    3.1966 F   0  0  0  0  0  0  0  0  0  0  0  0
   -6.9369   -1.4719    0.9262 C   0  0  0  0  0  0  0  0  0  0  0  0
   -5.8689   -1.3664   -0.0883 C   0  0  0  0  0  0  0  0  0  0  0  0
   -1.3323    0.5380   -2.5397 C   0  0  0  0  0  0  0  0  0  0  0  0
   -0.5627   -0.3867   -3.1307 C   0  0  0  0  0  0  0  0  0  0  0  0
   -0.5375   -0.5748   -4.5082 C   0  0  0  0  0  0  0  0  0  0  0  0
   -1.3500    0.2452   -5.2520 C   0  0  0  0  0  0  0  0  0  0  0  0
   -2.1379    1.1903   -4.6626 C   0  0  0  0  0  0  0  0  0  0  0  0
   -2.1286    1.3400   -3.2884 C   0  0  0  0  0  0  0  0  0  0  0  0
  1  2  1  0
  2  3  2  0
  3  4  1  0
  4  5  2  0
  5  6  1  0
  6  7  1  0
  6  8  1  0
  5  9  1  0
 10  9  1  1
 10 11  1  0
 12 11  1  6
 12 13  1  0
 13 14  1  0
 15 14  1  1
 15 16  1  0
 15 17  1  0
 17 18  1  0
 18 19  1  0
 20 19  1  1
 20 21  1  0
 21 22  1  0
 22 23  2  0
 22 24  1  0
 24 25  1  0
 25 26  1  0
 26 27  1  0
 27 28  1  0
 27 29  1  0
 27 30  1  0
 30 31  1  0
 20 32  1  0
 32 33  2  0
 33 34  1  0
 34 35  2  0
 35 36  1  0
 36 37  2  0
  9  2  1  0
 16 10  1  0
 31 24  1  0
 37 32  1  0
 17 12  1  0
M  END
>  <zinc_id>  (1) 
ZINC000003817234

>  <smiles>  (1) 
Cc1nnc(C(C)C)n1C1C[C@@H]2CC[C@H](C1)N2CC[C@H](NC(=O)C1CCC(F)(F)CC1)c1ccccc1

$$$$
