
     RDKit          3D

 31 34  0  0  0  0  0  0  0  0999 V2000
    5.4282    0.2174    4.0252 C   0  0  0  0  0  0  0  0  0  0  0  0
    4.3924    0.2124    3.1558 O   0  0  0  0  0  0  0  0  0  0  0  0
    4.7163    0.1272    1.7470 C   0  0  0  0  0  0  0  0  0  0  0  0
    5.9757    0.0792    1.2682 C   0  0  0  0  0  0  0  0  0  0  0  0
    6.1999    0.1192   -0.1117 C   0  0  0  0  0  0  0  0  0  0  0  0
    7.6135    0.1214   -0.4820 C   0  0  0  0  0  0  0  0  0  0  0  0
    7.9825   -0.4384   -1.8175 C   0  0  0  0  0  0  0  0  0  0  0  0
    8.4451    0.5272    0.2992 O   0  0  0  0  0  0  0  0  0  0  0  0
    5.1744    0.2154   -0.8908 C   0  0  0  0  0  0  0  0  0  0  0  0
    3.8659    0.2845   -0.3028 C   0  0  0  0  0  0  0  0  0  0  0  0
    3.6014    0.2109    0.9872 C   0  0  0  0  0  0  0  0  0  0  0  0
    2.4850    0.1904    1.7738 O   0  0  0  0  0  0  0  0  0  0  0  0
    1.2719    0.1994    1.0345 C   0  0  0  0  0  0  0  0  0  0  0  0
    1.4902   -1.1434    0.1948 C   0  0  0  0  0  0  0  0  0  0  0  0
    0.3198   -1.4077   -0.6158 C   0  0  0  0  0  0  0  0  0  0  0  0
    0.1046   -0.0541   -1.2858 N   0  0  0  0  0  0  0  0  0  0  0  0
   -0.7656   -0.3894   -2.4475 C   0  0  0  0  0  0  0  0  0  0  0  0
   -2.0688   -0.8761   -1.8257 C   0  0  0  0  0  0  0  0  0  0  0  0
   -2.8890    0.3877   -1.5232 C   0  0  0  0  0  0  0  0  0  0  0  0
   -3.8035   -0.0987   -0.4170 C   0  0  0  0  0  0  0  0  0  0  0  0
   -3.5718   -0.5422    0.9154 N   0  0  0  0  0  0  0  0  0  0  0  0
   -4.8520   -0.6927    1.3831 O   0  0  0  0  0  0  0  0  0  0  0  0
   -5.7016   -0.4464    0.5772 C   0  0  0  0  0  0  0  0  0  0  0  0
   -7.1554   -0.5986    0.6525 C   0  0  0  0  0  0  0  0  0  0  0  0
   -7.9189   -0.3610   -0.5208 C   0  0  0  0  0  0  0  0  0  0  0  0
   -9.2618   -0.2366   -0.4393 F   0  0  0  0  0  0  0  0  0  0  0  0
   -7.2740   -0.0267   -1.6747 C   0  0  0  0  0  0  0  0  0  0  0  0
   -5.9776    0.1052   -1.7200 C   0  0  0  0  0  0  0  0  0  0  0  0
   -5.2218   -0.0684   -0.6216 C   0  0  0  0  0  0  0  0  0  0  0  0
   -1.8624    1.4091   -0.9676 C   0  0  0  0  0  0  0  0  0  0  0  0
   -0.7425    0.7089   -0.3501 C   0  0  0  0  0  0  0  0  0  0  0  0
  1  2  1  0
  2  3  1  0
  3  4  2  0
  4  5  1  0
  5  6  1  0
  6  7  1  0
  6  8  2  0
  5  9  2  0
  9 10  1  0
 10 11  2  0
 11 12  1  0
 12 13  1  0
 13 14  1  0
 14 15  1  0
 15 16  1  0
 16 17  1  0
 17 18  1  0
 18 19  1  0
 19 20  1  0
 20 21  2  0
 21 22  1  0
 22 23  1  0
 23 24  2  0
 24 25  1  0
 25 26  1  0
 25 27  2  0
 27 28  1  0
 28 29  2  0
 19 30  1  0
 30 31  1  0
 11  3  1  0
 31 16  1  0
 29 20  1  0
 29 23  1  0
M  END
>  <zinc_id>  (1) 
ZINC000001548097

>  <smiles>  (1) 
COc1cc(C(C)=O)ccc1OCCCN1CCC(c2noc3cc(F)ccc23)CC1

$$$$
