
     RDKit          3D

 38 41  0  0  0  0  0  0  0  0999 V2000
   -2.0691   -3.9423    1.0260 C   0  0  0  0  0  0  0  0  0  0  0  0
   -2.4109   -3.8848    0.9910 C   0  0  0  0  0  0  0  0  0  0  0  0
   -2.9084   -4.8215    2.0340 C   0  0  0  0  0  0  0  0  0  0  0  0
   -2.6079   -2.4232    1.3046 C   0  0  0  0  0  0  0  0  0  0  0  0
   -1.7824   -1.7135    0.2982 N   0  0  0  0  0  0  0  0  0  0  0  0
   -1.3993   -0.4212    0.9239 C   0  0  0  0  0  0  0  0  0  0  0  0
    0.1902   -0.5981    1.0511 C   0  0  1  0  0  0  0  0  0  0  0  0
    0.4145   -0.7641   -0.4164 O   0  0  0  0  0  0  0  0  0  0  0  0
    0.5754    1.1213    1.1488 C   0  0  2  0  0  0  0  0  0  0  0  0
    0.0376    1.4878   -0.3435 C   0  0  0  0  0  0  0  0  0  0  0  0
    0.2329    2.9337   -0.4798 C   0  0  0  0  0  0  0  0  0  0  0  0
   -0.8261    3.6014   -1.1637 C   0  0  0  0  0  0  0  0  0  0  0  0
   -0.8077    4.9830   -1.3332 C   0  0  0  0  0  0  0  0  0  0  0  0
    0.2582    5.7516   -0.8400 C   0  0  0  0  0  0  0  0  0  0  0  0
    1.2391    5.0476   -0.1945 C   0  0  0  0  0  0  0  0  0  0  0  0
    1.2406    3.6716   -0.0079 C   0  0  0  0  0  0  0  0  0  0  0  0
    2.0198    0.8017    0.5004 N   0  0  0  0  0  0  0  0  0  0  0  0
    2.7132   -0.2904    1.0744 C   0  0  0  0  0  0  0  0  0  0  0  0
    2.3348   -0.9144    2.0664 O   0  0  0  0  0  0  0  0  0  0  0  0
    3.8711   -0.7508    0.4896 O   0  0  0  0  0  0  0  0  0  0  0  0
    4.5551   -1.9523    1.1203 C   0  0  1  0  0  0  0  0  0  0  0  0
    4.3931   -2.9245   -0.2840 C   0  0  0  0  0  0  0  0  0  0  0  0
    4.4096   -1.7946   -1.0686 O   0  0  0  0  0  0  0  0  0  0  0  0
    5.9094   -1.8822   -1.0959 C   0  0  1  0  0  0  0  0  0  0  0  0
    6.0694   -0.3964   -1.4649 O   0  0  0  0  0  0  0  0  0  0  0  0
    7.1490   -0.0627   -0.6663 C   0  0  0  0  0  0  0  0  0  0  0  0
    6.2530   -0.0632    0.5719 C   0  0  0  0  0  0  0  0  0  0  0  0
    6.2035   -1.6298    0.5949 C   0  0  1  0  0  0  0  0  0  0  0  0
   -2.7476   -1.3263   -1.0805 S   0  0  0  0  0  0  0  0  0  0  0  0
   -3.3985   -2.5738   -1.6222 O   0  0  0  0  0  0  0  0  0  0  0  0
   -1.9305   -0.7295   -2.1526 O   0  0  0  0  0  0  0  0  0  0  0  0
   -4.0420   -0.2122   -0.6012 C   0  0  0  0  0  0  0  0  0  0  0  0
   -5.2139   -0.6713   -0.0628 C   0  0  0  0  0  0  0  0  0  0  0  0
   -6.2363    0.1589    0.3603 C   0  0  0  0  0  0  0  0  0  0  0  0
   -5.9615    1.5314    0.1989 C   0  0  0  0  0  0  0  0  0  0  0  0
   -7.0135    2.4492    0.6186 N   0  0  0  0  0  0  0  0  0  0  0  0
   -4.8430    2.0609   -0.3232 C   0  0  0  0  0  0  0  0  0  0  0  0
   -3.8712    1.1431   -0.7277 C   0  0  0  0  0  0  0  0  0  0  0  0
  1  2  1  0
  2  3  1  0
  2  4  1  0
  4  5  1  0
  5  6  1  0
  6  7  1  0
  7  8  1  6
  7  9  1  0
  9 10  1  6
 10 11  1  0
 11 12  2  0
 12 13  1  0
 13 14  2  0
 14 15  1  0
 15 16  2  0
  9 17  1  0
 17 18  1  0
 18 19  2  0
 18 20  1  0
 21 20  1  6
 21 22  1  0
 22 23  1  0
 24 23  1  1
 24 25  1  0
 25 26  1  0
 26 27  1  0
 28 27  1  6
  5 29  1  0
 29 30  2  0
 29 31  2  0
 29 32  1  0
 32 33  2  0
 33 34  1  0
 34 35  2  0
 35 36  1  0
 35 37  1  0
 37 38  2  0
 16 11  1  0
 28 21  1  0
 38 32  1  0
 28 24  1  0
M  END
>  <zinc_id>  (1) 
ZINC000003955219

>  <smiles>  (1) 
CC(C)CN(C[C@@H](O)[C@H](Cc1ccccc1)NC(=O)O[C@H]1CO[C@H]2OCC[C@@H]12)S(=O)(=O)c1ccc(N)cc1

$$$$
