
     RDKit          3D

 17 18  0  0  0  0  0  0  0  0999 V2000
    0.9700    0.3757    2.0382 O   0  0  0  0  0  0  0  0  0  0  0  0
    1.7871    0.1528    0.9563 C   0  0  0  0  0  0  0  0  0  0  0  0
    3.0889    0.6229    0.9595 C   0  0  0  0  0  0  0  0  0  0  0  0
    3.9195    0.4069   -0.1174 C   0  0  0  0  0  0  0  0  0  0  0  0
    5.5572    1.0173   -0.0737 Cl  0  0  0  0  0  0  0  0  0  0  0  0
    3.4099   -0.2901   -1.1913 C   0  0  0  0  0  0  0  0  0  0  0  0
    2.1125   -0.7587   -1.1949 C   0  0  0  0  0  0  0  0  0  0  0  0
    1.2637   -0.5456   -0.1104 C   0  0  0  0  0  0  0  0  0  0  0  0
    0.0035   -1.0379   -0.1912 O   0  0  0  0  0  0  0  0  0  0  0  0
   -1.1969   -0.4254   -0.1495 C   0  0  0  0  0  0  0  0  0  0  0  0
   -1.2816    0.9340   -0.0059 C   0  0  0  0  0  0  0  0  0  0  0  0
   -2.5030    1.5770    0.0385 C   0  0  0  0  0  0  0  0  0  0  0  0
   -3.6398    0.8373   -0.0631 C   0  0  0  0  0  0  0  0  0  0  0  0
   -5.1677    1.7020   -0.0010 Cl  0  0  0  0  0  0  0  0  0  0  0  0
   -3.6088   -0.5352   -0.2091 C   0  0  0  0  0  0  0  0  0  0  0  0
   -2.3588   -1.1441   -0.2494 C   0  0  0  0  0  0  0  0  0  0  0  0
   -2.3557   -2.8889   -0.4357 Cl  0  0  0  0  0  0  0  0  0  0  0  0
  1  2  1  0
  2  3  2  0
  3  4  1  0
  4  5  1  0
  4  6  2  0
  6  7  1  0
  7  8  2  0
  8  9  1  0
  9 10  1  0
 10 11  2  0
 11 12  1  0
 12 13  2  0
 13 14  1  0
 13 15  1  0
 15 16  2  0
 16 17  1  0
  8  2  1  0
 16 10  1  0
M  END
>  <zinc_id>  (1) 
ZINC000000002216

>  <smiles>  (1) 
Oc1cc(Cl)ccc1Oc1ccc(Cl)cc1Cl

$$$$
