
     RDKit          3D

 32 36  0  0  0  0  0  0  0  0999 V2000
    2.2735    5.8655    2.4261 C   0  0  0  0  0  0  0  0  0  0  0  0
    1.3970    5.2398    1.4729 C   0  0  0  0  0  0  0  0  0  0  0  0
    0.6706    4.6987    0.6758 C   0  0  0  0  0  0  0  0  0  0  0  0
   -0.2062    4.0230   -0.2709 C   0  0  2  0  0  0  0  0  0  0  0  0
   -0.0185    4.7083   -1.4845 O   0  0  0  0  0  0  0  0  0  0  0  0
   -1.6621    4.3919   -0.0408 C   0  0  0  0  0  0  0  0  0  0  0  0
   -2.2612    3.3250   -0.9565 C   0  0  0  0  0  0  0  0  0  0  0  0
   -1.6447    2.1444   -0.0028 C   0  0  1  0  0  0  0  0  0  0  0  0
   -1.5829    0.8845   -1.1194 C   0  0  2  0  0  0  0  0  0  0  0  0
   -3.2094    0.5571   -1.0748 C   0  0  0  0  0  0  0  0  0  0  0  0
   -3.4132   -0.7631   -1.6044 C   0  0  0  0  0  0  0  0  0  0  0  0
   -2.8125   -1.7282   -0.6524 C   0  0  0  0  0  0  0  0  0  0  0  0
   -3.2742   -2.9564   -0.5627 C   0  0  0  0  0  0  0  0  0  0  0  0
   -2.6722   -3.8846    0.3712 C   0  0  0  0  0  0  0  0  0  0  0  0
   -3.2565   -4.9418    0.7048 O   0  0  0  0  0  0  0  0  0  0  0  0
   -1.3281   -3.5395    0.9253 C   0  0  0  0  0  0  0  0  0  0  0  0
   -1.2231   -2.0989    1.2571 C   0  0  0  0  0  0  0  0  0  0  0  0
   -1.7115   -1.2491    0.1431 C   0  0  0  0  0  0  0  0  0  0  0  0
   -1.1101   -0.1228    0.0113 C   0  0  0  0  0  0  0  0  0  0  0  0
    0.0627    0.3498    0.9269 C   0  0  1  0  0  0  0  0  0  0  0  0
    1.1285   -0.7151    0.4736 C   0  0  0  0  0  0  0  0  0  0  0  0
    1.3215   -1.2147   -0.7189 C   0  0  0  0  0  0  0  0  0  0  0  0
    2.3288   -2.1637   -0.9552 C   0  0  0  0  0  0  0  0  0  0  0  0
    3.1277   -2.5818    0.0651 C   0  0  0  0  0  0  0  0  0  0  0  0
    4.1623   -3.5557   -0.1748 N   0  0  0  0  0  0  0  0  0  0  0  0
    5.0251   -4.0181    0.8878 C   0  0  0  0  0  0  0  0  0  0  0  0
    4.3560   -4.0902   -1.4909 C   0  0  0  0  0  0  0  0  0  0  0  0
    2.9276   -2.0593    1.3175 C   0  0  0  0  0  0  0  0  0  0  0  0
    1.9256   -1.1269    1.5105 C   0  0  0  0  0  0  0  0  0  0  0  0
    0.6694    1.6154    0.1370 C   0  0  0  0  0  0  0  0  0  0  0  0
   -0.1461    2.6039   -0.3481 C   0  0  2  0  0  0  0  0  0  0  0  0
    0.1562    2.4029   -1.8489 C   0  0  0  0  0  0  0  0  0  0  0  0
  1  2  1  0
  2  3  3  0
  3  4  1  0
  4  5  1  6
  4  6  1  0
  6  7  1  0
  8  7  1  6
  8  9  1  0
  9 10  1  1
 10 11  1  0
 11 12  1  0
 12 13  2  0
 13 14  1  0
 14 15  2  0
 14 16  1  0
 16 17  1  0
 17 18  1  0
 18 19  2  0
 19 20  1  0
 20 21  1  6
 21 22  2  0
 22 23  1  0
 23 24  2  0
 24 25  1  0
 25 26  1  0
 25 27  1  0
 24 28  1  0
 28 29  2  0
 20 30  1  0
 30 31  1  0
 31 32  1  6
 31  4  1  0
 31  8  1  0
 19  9  1  0
 29 21  1  0
 18 12  1  0
M  END
>  <zinc_id>  (1) 
ZINC000003831128

>  <smiles>  (1) 
CC#C[C@]1(O)CC[C@H]2[C@@H]3CCC4=CC(=O)CCC4=C3[C@@H](c3ccc(N(C)C)cc3)C[C@@]21C

$$$$
