
     RDKit          3D

 25 26  0  0  0  0  0  0  0  0999 V2000
    5.6989    2.7895   -0.5975 C   0  0  0  0  0  0  0  0  0  0  0  0
    5.5709    1.9756   -1.1895 O   0  0  0  0  0  0  0  0  0  0  0  0
    4.7690    0.8306   -1.0059 C   0  0  0  0  0  0  0  0  0  0  0  0
    4.0081    0.6995    0.1701 C   0  0  0  0  0  0  0  0  0  0  0  0
    3.2392   -0.4558    0.2674 C   0  0  0  0  0  0  0  0  0  0  0  0
    3.1429   -1.4542   -0.6331 C   0  0  0  0  0  0  0  0  0  0  0  0
    2.2941   -2.5945   -0.4886 C   0  0  0  0  0  0  0  0  0  0  0  0
    0.7747   -2.2578   -1.1221 C   0  0  2  0  0  0  0  0  0  0  0  0
    1.3212   -1.9340   -2.6925 C   0  0  0  0  0  0  0  0  0  0  0  0
    0.8258   -0.7531   -0.7451 N   0  0  0  0  0  0  0  0  0  0  0  0
   -0.4482   -0.2416   -0.4054 C   0  0  0  0  0  0  0  0  0  0  0  0
   -0.7630   -0.9417    1.0412 C   0  0  2  0  0  0  0  0  0  0  0  0
   -0.8660   -2.3690    0.5638 O   0  0  0  0  0  0  0  0  0  0  0  0
   -2.3238   -0.5563    1.1130 C   0  0  0  0  0  0  0  0  0  0  0  0
   -3.2032   -1.4223    1.6371 C   0  0  0  0  0  0  0  0  0  0  0  0
   -4.4896   -1.0179    1.8147 C   0  0  0  0  0  0  0  0  0  0  0  0
   -4.9052    0.2535    1.4661 C   0  0  0  0  0  0  0  0  0  0  0  0
   -6.2276    0.7165    1.6251 O   0  0  0  0  0  0  0  0  0  0  0  0
   -3.9713    1.0978    0.9300 C   0  0  0  0  0  0  0  0  0  0  0  0
   -4.3923    2.4335    0.6131 N   0  0  0  0  0  0  0  0  0  0  0  0
   -3.5358    3.2373   -0.1874 C   0  0  0  0  0  0  0  0  0  0  0  0
   -2.4731    2.6944   -0.5836 O   0  0  0  0  0  0  0  0  0  0  0  0
   -2.6679    0.7105    0.7413 C   0  0  0  0  0  0  0  0  0  0  0  0
    3.9190   -1.2847   -1.7863 C   0  0  0  0  0  0  0  0  0  0  0  0
    4.7034   -0.1559   -1.9322 C   0  0  0  0  0  0  0  0  0  0  0  0
  1  2  1  0
  2  3  1  0
  3  4  2  0
  4  5  1  0
  5  6  2  0
  6  7  1  0
  7  8  1  0
  8  9  1  6
  8 10  1  0
 10 11  1  0
 11 12  1  0
 12 13  1  6
 12 14  1  0
 14 15  2  0
 15 16  1  0
 16 17  2  0
 17 18  1  0
 17 19  1  0
 19 20  1  0
 20 21  1  0
 21 22  2  0
 19 23  2  0
  6 24  1  0
 24 25  2  0
 25  3  1  0
 23 14  1  0
M  END
>  <zinc_id>  (1) 
ZINC000000897256

>  <smiles>  (1) 
COc1ccc(C[C@H](C)NC[C@H](O)c2ccc(O)c(NC=O)c2)cc1

$$$$
