
     RDKit          3D

 24 25  0  0  0  0  0  0  0  0999 V2000
   -2.3910   -0.9275    2.9612 C   0  0  0  0  0  0  0  0  0  0  0  0
   -1.9772   -1.2798    1.5589 C   0  0  0  0  0  0  0  0  0  0  0  0
   -2.2090   -2.5513    1.0819 C   0  0  0  0  0  0  0  0  0  0  0  0
   -1.8293   -2.8751   -0.2102 C   0  0  0  0  0  0  0  0  0  0  0  0
   -1.2130   -1.9173   -1.0302 C   0  0  0  0  0  0  0  0  0  0  0  0
   -0.8799   -2.3610   -2.3009 O   0  0  0  0  0  0  0  0  0  0  0  0
   -1.0092   -0.6820   -0.5092 C   0  0  0  0  0  0  0  0  0  0  0  0
   -0.3224    0.3581   -1.4868 C   0  0  2  0  0  0  0  0  0  0  0  0
    0.8326    0.8150   -0.4134 C   0  0  0  0  0  0  0  0  0  0  0  0
    1.5851   -0.4626   -0.1179 C   0  0  0  0  0  0  0  0  0  0  0  0
    2.6399   -0.2985    0.8088 N   0  0  0  0  0  0  0  0  0  0  0  0
    3.2840   -1.5815    1.0023 C   0  0  0  0  0  0  0  0  0  0  0  0
    2.2000   -2.4916    1.5960 C   0  0  0  0  0  0  0  0  0  0  0  0
    4.3635   -1.4150    2.0597 C   0  0  0  0  0  0  0  0  0  0  0  0
    3.5099    0.7415    0.4187 C   0  0  0  0  0  0  0  0  0  0  0  0
    4.2332    0.5833   -0.8504 C   0  0  0  0  0  0  0  0  0  0  0  0
    4.2030    1.4735    1.5001 C   0  0  0  0  0  0  0  0  0  0  0  0
   -1.3324    1.5696   -1.2285 C   0  0  0  0  0  0  0  0  0  0  0  0
   -1.2319    2.4511   -0.2649 C   0  0  0  0  0  0  0  0  0  0  0  0
   -2.1652    3.4537   -0.1315 C   0  0  0  0  0  0  0  0  0  0  0  0
   -3.2159    3.5377   -1.0139 C   0  0  0  0  0  0  0  0  0  0  0  0
   -3.3318    2.6163   -2.0313 C   0  0  0  0  0  0  0  0  0  0  0  0
   -2.3670    1.6068   -2.1429 C   0  0  0  0  0  0  0  0  0  0  0  0
   -1.3761   -0.3634    0.7441 C   0  0  0  0  0  0  0  0  0  0  0  0
  1  2  1  0
  2  3  2  0
  3  4  1  0
  4  5  2  0
  5  6  1  0
  5  7  1  0
  7  8  1  0
  8  9  1  1
  9 10  1  0
 10 11  1  0
 11 12  1  0
 12 13  1  0
 12 14  1  0
 11 15  1  0
 15 16  1  0
 15 17  1  0
  8 18  1  0
 18 19  2  0
 19 20  1  0
 20 21  2  0
 21 22  1  0
 22 23  2  0
  7 24  2  0
 24  2  1  0
 23 18  1  0
M  END
>  <zinc_id>  (1) 
ZINC000000968336

>  <smiles>  (1) 
Cc1ccc(O)c([C@H](CCN(C(C)C)C(C)C)c2ccccc2)c1

$$$$
