
     RDKit          3D

 14 15  0  0  0  0  0  0  0  0999 V2000
   -1.1760    1.9085    0.4477 C   0  0  0  0  0  0  0  0  0  0  0  0
   -2.0267    0.8542   -0.0842 N   0  0  0  0  0  0  0  0  0  0  0  0
   -3.3418    1.2156   -0.5203 C   0  0  0  0  0  0  0  0  0  0  0  0
   -4.1140    0.0287   -1.0420 C   0  0  0  0  0  0  0  0  0  0  0  0
   -3.7503   -1.2481   -0.3255 C   0  0  0  0  0  0  0  0  0  0  0  0
   -2.3207   -1.4614   -0.2550 N   0  0  0  0  0  0  0  0  0  0  0  0
   -1.5076   -0.4700   -0.1412 C   0  0  0  0  0  0  0  0  0  0  0  0
   -0.0710   -0.7572   -0.0752 C   0  0  0  0  0  0  0  0  0  0  0  0
    0.7435    0.2788    0.0416 C   0  0  0  0  0  0  0  0  0  0  0  0
    2.1977    0.0623    0.1133 C   0  0  0  0  0  0  0  0  0  0  0  0
    3.1371    1.0109    0.2317 C   0  0  0  0  0  0  0  0  0  0  0  0
    4.4042    0.6463    0.2826 C   0  0  0  0  0  0  0  0  0  0  0  0
    4.6970   -0.6814    0.2120 C   0  0  0  0  0  0  0  0  0  0  0  0
    3.1285   -1.3871    0.0725 S   0  0  0  0  0  0  0  0  0  0  0  0
  1  2  1  0
  2  3  1  0
  3  4  1  0
  4  5  1  0
  5  6  1  0
  6  7  2  0
  7  8  1  0
  8  9  2  0
  9 10  1  0
 10 11  2  0
 11 12  1  0
 12 13  2  0
 13 14  1  0
  7  2  1  0
 14 10  1  0
M  END
>  <zinc_id>  (1) 
ZINC000000097996

>  <smiles>  (1) 
CN1CCCN=C1/C=C/c1cccs1

$$$$
