
     RDKit          3D

 19 20  0  0  0  0  0  0  0  0999 V2000
    4.1447    0.4947   -2.0048 C   0  0  0  0  0  0  0  0  0  0  0  0
    3.3856    0.0975   -0.7866 C   0  0  0  0  0  0  0  0  0  0  0  0
    3.9634   -0.6240    0.2371 C   0  0  0  0  0  0  0  0  0  0  0  0
    3.1908   -0.9514    1.3303 C   0  0  0  0  0  0  0  0  0  0  0  0
    1.8642   -0.5704    1.4105 C   0  0  0  0  0  0  0  0  0  0  0  0
    0.9219   -1.0118    2.8241 Cl  0  0  0  0  0  0  0  0  0  0  0  0
    1.2724    0.1548    0.3883 C   0  0  0  0  0  0  0  0  0  0  0  0
   -0.0864    0.5669    0.4286 N   0  0  0  0  0  0  0  0  0  0  0  0
   -1.1594   -0.2020   -0.0727 C   0  0  0  0  0  0  0  0  0  0  0  0
   -0.9469   -1.4229   -0.6424 C   0  0  0  0  0  0  0  0  0  0  0  0
   -1.9864   -2.2019   -1.1447 C   0  0  0  0  0  0  0  0  0  0  0  0
   -3.2817   -1.7381   -1.0718 C   0  0  0  0  0  0  0  0  0  0  0  0
   -3.4941   -0.5010   -0.4942 C   0  0  0  0  0  0  0  0  0  0  0  0
   -2.4546    0.2594   -0.0010 C   0  0  0  0  0  0  0  0  0  0  0  0
   -2.7902    1.5501    0.5882 C   0  0  0  0  0  0  0  0  0  0  0  0
   -1.8401    2.2428    1.0379 O   0  0  0  0  0  0  0  0  0  0  0  0
   -4.0994    2.0046    0.6549 O   0  0  0  0  0  0  0  0  0  0  0  0
    2.0633    0.4694   -0.6918 C   0  0  0  0  0  0  0  0  0  0  0  0
    1.3329    1.3834   -1.9897 Cl  0  0  0  0  0  0  0  0  0  0  0  0
  1  2  1  0
  2  3  2  0
  3  4  1  0
  4  5  2  0
  5  6  1  0
  5  7  1  0
  7  8  1  0
  8  9  1  0
  9 10  2  0
 10 11  1  0
 11 12  2  0
 12 13  1  0
 13 14  2  0
 14 15  1  0
 15 16  2  0
 15 17  1  0
  7 18  2  0
 18 19  1  0
 18  2  1  0
 14  9  1  0
M  END
>  <zinc_id>  (1) 
ZINC000000001655

>  <smiles>  (1) 
Cc1ccc(Cl)c(Nc2ccccc2C(=O)O)c1Cl

$$$$
