
     RDKit          3D

 15 16  0  0  0  0  0  0  0  0999 V2000
   -2.8613    1.4173   -0.0028 N   0  0  0  0  0  0  0  0  0  0  0  0
   -2.6557    0.1379   -0.9203 C   0  0  1  0  0  0  0  0  0  0  0  0
   -1.2619    0.5704   -1.5954 C   0  0  0  0  0  0  0  0  0  0  0  0
   -0.1544    0.7995   -0.7714 C   0  0  0  0  0  0  0  0  0  0  0  0
    0.1709    2.0554   -0.1999 C   0  0  0  0  0  0  0  0  0  0  0  0
    1.2576    1.9502    0.5687 N   0  0  0  0  0  0  0  0  0  0  0  0
    1.6754    0.6973    0.5415 C   0  0  0  0  0  0  0  0  0  0  0  0
    2.7803    0.1318    1.1754 C   0  0  0  0  0  0  0  0  0  0  0  0
    3.0789   -1.2029    1.0104 C   0  0  0  0  0  0  0  0  0  0  0  0
    2.2324   -1.9242    0.1961 C   0  0  0  0  0  0  0  0  0  0  0  0
    1.1470   -1.3514   -0.4208 C   0  0  0  0  0  0  0  0  0  0  0  0
    0.8236   -0.0282   -0.2756 C   0  0  0  0  0  0  0  0  0  0  0  0
   -2.2105   -0.8515    0.1799 C   0  0  0  0  0  0  0  0  0  0  0  0
   -2.2235   -2.0793    0.0116 O   0  0  0  0  0  0  0  0  0  0  0  0
   -1.7987   -0.3224    1.3542 O   0  0  0  0  0  0  0  0  0  0  0  0
  2  1  1  1
  2  3  1  0
  3  4  1  0
  4  5  2  0
  5  6  1  0
  6  7  1  0
  7  8  2  0
  8  9  1  0
  9 10  2  0
 10 11  1  0
 11 12  2  0
  2 13  1  0
 13 14  2  0
 13 15  1  0
 12  4  1  0
 12  7  1  0
M  END
>  <zinc_id>  (1) 
ZINC000000083315

>  <smiles>  (1) 
N[C@@H](Cc1c[nH]c2ccccc12)C(=O)O

$$$$
