
     RDKit          3D

 19 20  0  0  0  0  0  0  0  0999 V2000
    3.2168   -1.5966   -2.2381 C   0  0  0  0  0  0  0  0  0  0  0  0
    3.8760   -0.8540   -1.0800 C   0  0  0  0  0  0  0  0  0  0  0  0
    5.1171   -0.8777   -0.7444 O   0  0  0  0  0  0  0  0  0  0  0  0
    5.3059   -0.1147    0.2870 N   0  0  0  0  0  0  0  0  0  0  0  0
    4.1341    0.4363    0.6470 C   0  0  0  0  0  0  0  0  0  0  0  0
    3.1759   -0.0246   -0.2261 C   0  0  0  0  0  0  0  0  0  0  0  0
    1.7765    0.2373   -0.1865 C   0  0  0  0  0  0  0  0  0  0  0  0
    1.0065   -0.7942   -0.0999 O   0  0  0  0  0  0  0  0  0  0  0  0
    1.0405    1.4995   -0.2392 N   0  0  0  0  0  0  0  0  0  0  0  0
   -0.4183    1.2029   -0.1094 C   0  0  0  0  0  0  0  0  0  0  0  0
   -1.0660    1.5246    1.0114 C   0  0  0  0  0  0  0  0  0  0  0  0
   -2.3469    1.0428    1.2061 C   0  0  0  0  0  0  0  0  0  0  0  0
   -2.9998    0.2521    0.2889 C   0  0  0  0  0  0  0  0  0  0  0  0
   -4.3314   -0.3878    0.5513 C   0  0  0  0  0  0  0  0  0  0  0  0
   -5.2093    0.4554    1.1878 F   0  0  0  0  0  0  0  0  0  0  0  0
   -4.1254   -1.5149    1.3519 F   0  0  0  0  0  0  0  0  0  0  0  0
   -4.8075   -0.8639   -0.6598 F   0  0  0  0  0  0  0  0  0  0  0  0
   -2.3207   -0.0453   -0.8466 C   0  0  0  0  0  0  0  0  0  0  0  0
   -1.0242    0.4227   -1.0571 C   0  0  0  0  0  0  0  0  0  0  0  0
  1  2  1  0
  2  3  1  0
  3  4  1  0
  4  5  2  0
  5  6  1  0
  6  7  1  0
  7  8  2  0
  7  9  1  0
  9 10  1  0
 10 11  2  0
 11 12  1  0
 12 13  2  0
 13 14  1  0
 14 15  1  0
 14 16  1  0
 14 17  1  0
 13 18  1  0
 18 19  2  0
  6  2  2  0
 19 10  1  0
M  END
>  <zinc_id>  (1) 
ZINC000000004840

>  <smiles>  (1) 
Cc1oncc1C(=O)Nc1ccc(C(F)(F)F)cc1

$$$$
