
     RDKit          3D

 10 10  0  0  0  0  0  0  0  0999 V2000
    3.5807    0.5323   -0.4541 N   0  0  0  0  0  0  0  0  0  0  0  0
    2.1719    0.6518   -0.5756 N   0  0  0  0  0  0  0  0  0  0  0  0
    1.3508   -0.2084    0.2022 C   0  0  0  0  0  0  0  0  0  0  0  0
    1.8498   -1.0420    0.9677 O   0  0  0  0  0  0  0  0  0  0  0  0
   -0.0936   -0.0946    0.0855 C   0  0  0  0  0  0  0  0  0  0  0  0
   -0.6831    0.8237   -0.7580 C   0  0  0  0  0  0  0  0  0  0  0  0
   -2.0654    0.9070   -0.8464 C   0  0  0  0  0  0  0  0  0  0  0  0
   -2.8794    0.1117   -0.1276 N   0  0  0  0  0  0  0  0  0  0  0  0
   -2.3004   -0.7763    0.6882 C   0  0  0  0  0  0  0  0  0  0  0  0
   -0.9313   -0.9052    0.8180 C   0  0  0  0  0  0  0  0  0  0  0  0
  1  2  1  0
  2  3  1  0
  3  4  2  0
  3  5  1  0
  5  6  2  0
  6  7  1  0
  7  8  2  0
  8  9  1  0
  9 10  2  0
 10  5  1  0
M  END
>  <zinc_id>  (1) 
ZINC000000001590

>  <smiles>  (1) 
NNC(=O)c1ccncc1

$$$$
