
     RDKit          3D

 50 53  0  0  0  0  0  0  0  0999 V2000
    8.6571    1.5174   -0.8970 C   0  0  0  0  0  0  0  0  0  0  0  0
    8.7520    1.2343   -0.2699 C   0  0  0  0  0  0  0  0  0  0  0  0
   10.0582    1.1440    0.5428 C   0  0  0  0  0  0  0  0  0  0  0  0
    7.7059    0.4782    0.5353 C   0  0  0  0  0  0  0  0  0  0  0  0
    6.9541   -0.5254    0.1145 N   0  0  0  0  0  0  0  0  0  0  0  0
    6.1053   -1.0675    0.9300 C   0  0  0  0  0  0  0  0  0  0  0  0
    5.2214   -2.2226    0.5103 C   0  0  0  0  0  0  0  0  0  0  0  0
    4.3173   -2.6303    1.5243 N   0  0  0  0  0  0  0  0  0  0  0  0
    4.7240   -3.6380    2.4547 C   0  0  0  0  0  0  0  0  0  0  0  0
    2.9970   -2.0517    1.6472 C   0  0  0  0  0  0  0  0  0  0  0  0
    2.2360   -2.5075    2.5181 O   0  0  0  0  0  0  0  0  0  0  0  0
    2.6221   -0.9960    0.7802 N   0  0  0  0  0  0  0  0  0  0  0  0
    1.1749   -0.4451    0.9763 C   0  0  2  0  0  0  0  0  0  0  0  0
    1.1254    0.3166   -0.4602 C   0  0  0  0  0  0  0  0  0  0  0  0
    2.1376    0.8519   -0.8753 O   0  0  0  0  0  0  0  0  0  0  0  0
   -0.1436    0.2805   -1.1147 N   0  0  0  0  0  0  0  0  0  0  0  0
   -0.0507    1.0391   -2.4503 C   0  0  1  0  0  0  0  0  0  0  0  0
   -0.1625   -0.2400   -3.4564 C   0  0  0  0  0  0  0  0  0  0  0  0
    0.8763   -1.1913   -3.2743 C   0  0  0  0  0  0  0  0  0  0  0  0
    0.7312   -2.2718   -2.4317 C   0  0  0  0  0  0  0  0  0  0  0  0
    1.6585   -3.2287   -2.1771 C   0  0  0  0  0  0  0  0  0  0  0  0
    2.8707   -3.1447   -2.8019 C   0  0  0  0  0  0  0  0  0  0  0  0
    3.1067   -2.0890   -3.6690 C   0  0  0  0  0  0  0  0  0  0  0  0
    2.1378   -1.1381   -3.8995 C   0  0  0  0  0  0  0  0  0  0  0  0
   -1.5949    1.5176   -2.5352 C   0  0  0  0  0  0  0  0  0  0  0  0
   -2.5153    0.2067   -2.5679 C   0  0  2  0  0  0  0  0  0  0  0  0
   -3.8321    0.9846   -2.7558 O   0  0  0  0  0  0  0  0  0  0  0  0
   -2.6481    0.0235   -0.8968 C   0  0  2  0  0  0  0  0  0  0  0  0
   -3.8809   -0.7973   -0.6977 C   0  0  0  0  0  0  0  0  0  0  0  0
   -5.2015   -0.5881   -1.0855 C   0  0  0  0  0  0  0  0  0  0  0  0
   -5.6394   -1.2484   -2.2616 C   0  0  0  0  0  0  0  0  0  0  0  0
   -6.8994   -1.1489   -2.7728 C   0  0  0  0  0  0  0  0  0  0  0  0
   -7.8374   -0.3676   -2.1347 C   0  0  0  0  0  0  0  0  0  0  0  0
   -7.4851    0.3026   -0.9889 C   0  0  0  0  0  0  0  0  0  0  0  0
   -6.2239    0.1588   -0.5400 C   0  0  0  0  0  0  0  0  0  0  0  0
   -2.8684    1.4165   -0.4091 N   0  0  0  0  0  0  0  0  0  0  0  0
   -3.2937    1.6427    0.9102 C   0  0  0  0  0  0  0  0  0  0  0  0
   -3.5007    0.6610    1.6886 O   0  0  0  0  0  0  0  0  0  0  0  0
   -3.5130    2.8890    1.4481 O   0  0  0  0  0  0  0  0  0  0  0  0
   -3.9603    3.1745    2.7584 C   0  0  0  0  0  0  0  0  0  0  0  0
   -5.3103    2.6270    3.0119 C   0  0  0  0  0  0  0  0  0  0  0  0
   -5.6789    1.5126    3.6722 C   0  0  0  0  0  0  0  0  0  0  0  0
   -6.9361    1.2144    3.7707 N   0  0  0  0  0  0  0  0  0  0  0  0
   -7.8390    2.0194    3.2155 C   0  0  0  0  0  0  0  0  0  0  0  0
   -6.8266    3.2404    2.5336 S   0  0  0  0  0  0  0  0  0  0  0  0
    1.6635    0.9210    1.7605 C   0  0  0  0  0  0  0  0  0  0  0  0
    2.3849    0.4675    2.9954 C   0  0  0  0  0  0  0  0  0  0  0  0
    0.3723    1.5663    2.1906 C   0  0  0  0  0  0  0  0  0  0  0  0
    6.0371   -0.5583    2.2000 C   0  0  0  0  0  0  0  0  0  0  0  0
    7.2145    0.6879    2.1508 S   0  0  0  0  0  0  0  0  0  0  0  0
  1  2  1  0
  2  3  1  0
  2  4  1  0
  4  5  2  0
  5  6  1  0
  6  7  1  0
  7  8  1  0
  8  9  1  0
  8 10  1  0
 10 11  2  0
 10 12  1  0
 13 12  1  6
 13 14  1  0
 14 15  2  0
 14 16  1  0
 16 17  1  0
 17 18  1  6
 18 19  1  0
 19 20  2  0
 20 21  1  0
 21 22  2  0
 22 23  1  0
 23 24  2  0
 17 25  1  0
 25 26  1  0
 26 27  1  6
 26 28  1  0
 28 29  1  6
 29 30  1  0
 30 31  2  0
 31 32  1  0
 32 33  2  0
 33 34  1  0
 34 35  2  0
 28 36  1  0
 36 37  1  0
 37 38  2  0
 37 39  1  0
 39 40  1  0
 40 41  1  0
 41 42  2  0
 42 43  1  0
 43 44  2  0
 44 45  1  0
 13 46  1  0
 46 47  1  0
 46 48  1  0
  6 49  2  0
 49 50  1  0
 50  4  1  0
 24 19  1  0
 35 30  1  0
 45 41  1  0
M  END
>  <zinc_id>  (1) 
ZINC000003944422

>  <smiles>  (1) 
CC(C)c1nc(CN(C)C(=O)N[C@H](C(=O)N[C@@H](Cc2ccccc2)C[C@H](O)[C@H](Cc2ccccc2)NC(=O)OCc2cncs2)C(C)C)cs1

$$$$
