
     RDKit          3D

 17 17  0  0  0  0  0  0  0  0999 V2000
   -2.8927   -2.5947    1.1958 C   0  0  0  0  0  0  0  0  0  0  0  0
   -1.8032   -2.2932    0.6147 C   0  0  0  0  0  0  0  0  0  0  0  0
   -1.5302   -1.3994   -0.4889 C   0  0  0  0  0  0  0  0  0  0  0  0
   -0.5319   -0.3049   -0.2250 C   0  0  0  0  0  0  0  0  0  0  0  0
    0.8543   -1.1350    0.1846 C   0  0  1  0  0  0  0  0  0  0  0  0
    0.9238   -1.9133   -1.2637 C   0  0  0  0  0  0  0  0  0  0  0  0
    1.9118    0.0342   -0.2837 C   0  0  0  0  0  0  0  0  0  0  0  0
    3.2777   -0.5358    0.0125 C   0  0  0  0  0  0  0  0  0  0  0  0
    3.3680   -0.8219    1.4832 C   0  0  0  0  0  0  0  0  0  0  0  0
   -0.9086    0.4280    0.9877 C   0  0  0  0  0  0  0  0  0  0  0  0
   -1.4584   -0.0766    2.0094 O   0  0  0  0  0  0  0  0  0  0  0  0
   -0.6336    1.8422    1.0322 N   0  0  0  0  0  0  0  0  0  0  0  0
   -0.1782    2.5966   -0.0708 C   0  0  0  0  0  0  0  0  0  0  0  0
    0.0411    3.8100    0.0286 O   0  0  0  0  0  0  0  0  0  0  0  0
    0.0098    1.8853   -1.2853 N   0  0  0  0  0  0  0  0  0  0  0  0
   -0.2432    0.4907   -1.3977 C   0  0  0  0  0  0  0  0  0  0  0  0
   -0.2066   -0.0121   -2.5336 O   0  0  0  0  0  0  0  0  0  0  0  0
  1  2  2  0
  2  3  1  0
  3  4  1  0
  4  5  1  0
  5  6  1  6
  5  7  1  0
  7  8  1  0
  8  9  1  0
  4 10  1  0
 10 11  2  0
 10 12  1  0
 12 13  1  0
 13 14  2  0
 13 15  1  0
 15 16  1  0
 16 17  2  0
 16  4  1  0
M  END
>  <zinc_id>  (1) 
ZINC000002005550

>  <smiles>  (1) 
C=CCC1([C@@H](C)CCC)C(=O)NC(=O)NC1=O

$$$$
