
     RDKit          3D

 25 27  0  0  0  0  0  0  0  0999 V2000
    8.6560    1.0913   -1.1281 C   0  0  0  0  0  0  0  0  0  0  0  0
    8.4537   -0.0194   -0.1150 C   0  0  0  0  0  0  0  0  0  0  0  0
    7.0606   -0.0455    0.1816 O   0  0  0  0  0  0  0  0  0  0  0  0
    6.0960   -0.2746   -0.7789 C   0  0  0  0  0  0  0  0  0  0  0  0
    6.4881   -0.4658   -1.9590 O   0  0  0  0  0  0  0  0  0  0  0  0
    4.6717   -0.3026   -0.4827 C   0  0  0  0  0  0  0  0  0  0  0  0
    4.2090   -0.0977    0.7957 C   0  0  0  0  0  0  0  0  0  0  0  0
    2.8548   -0.1348    1.0191 C   0  0  0  0  0  0  0  0  0  0  0  0
    1.9484   -0.3693    0.0102 C   0  0  0  0  0  0  0  0  0  0  0  0
    0.5274   -0.4177    0.1926 C   0  0  0  0  0  0  0  0  0  0  0  0
   -0.6622   -0.4419    0.3586 C   0  0  0  0  0  0  0  0  0  0  0  0
   -2.1078   -0.4508    0.5756 C   0  0  0  0  0  0  0  0  0  0  0  0
   -2.6539   -1.1320    1.6333 C   0  0  0  0  0  0  0  0  0  0  0  0
   -4.0380   -1.1470    1.8504 C   0  0  0  0  0  0  0  0  0  0  0  0
   -4.8581   -0.4632    0.9820 C   0  0  0  0  0  0  0  0  0  0  0  0
   -4.2962    0.2146   -0.0731 C   0  0  0  0  0  0  0  0  0  0  0  0
   -2.9413    0.2223   -0.2756 C   0  0  0  0  0  0  0  0  0  0  0  0
   -5.2455    0.9368   -0.9808 C   0  0  0  0  0  0  0  0  0  0  0  0
   -6.0641   -0.1250   -1.6909 C   0  0  0  0  0  0  0  0  0  0  0  0
   -4.4008    1.7114   -1.9697 C   0  0  0  0  0  0  0  0  0  0  0  0
   -6.1061    1.9333   -0.2496 C   0  0  0  0  0  0  0  0  0  0  0  0
   -7.1360    1.2708    0.6322 C   0  0  0  0  0  0  0  0  0  0  0  0
   -6.6305   -0.3924    1.1329 S   0  0  0  0  0  0  0  0  0  0  0  0
    2.4189   -0.5668   -1.2295 N   0  0  0  0  0  0  0  0  0  0  0  0
    3.7561   -0.5339   -1.4709 C   0  0  0  0  0  0  0  0  0  0  0  0
  1  2  1  0
  2  3  1  0
  3  4  1  0
  4  5  2  0
  4  6  1  0
  6  7  2  0
  7  8  1  0
  8  9  2  0
  9 10  1  0
 10 11  3  0
 11 12  1  0
 12 13  2  0
 13 14  1  0
 14 15  2  0
 15 16  1  0
 16 17  2  0
 16 18  1  0
 18 19  1  0
 18 20  1  0
 18 21  1  0
 21 22  1  0
 22 23  1  0
  9 24  1  0
 24 25  2  0
 25  6  1  0
 17 12  1  0
 23 15  1  0
M  END
>  <zinc_id>  (1) 
ZINC000001542199

>  <smiles>  (1) 
CCOC(=O)c1ccc(C#Cc2ccc3c(c2)C(C)(C)CCS3)nc1

$$$$
