
     RDKit          3D

 36 39  0  0  0  0  0  0  0  0999 V2000
    6.2567    0.3657    1.8294 O   0  0  0  0  0  0  0  0  0  0  0  0
    5.1759    1.2196    2.0895 C   0  0  0  0  0  0  0  0  0  0  0  0
    4.5025    1.4525    0.7444 C   0  0  0  0  0  0  0  0  0  0  0  0
    4.0489    0.1649    0.1910 N   0  0  0  0  0  0  0  0  0  0  0  0
    5.0468   -0.7407   -0.2015 C   0  0  0  0  0  0  0  0  0  0  0  0
    4.6597   -1.9266   -1.0020 C   0  0  0  0  0  0  0  0  0  0  0  0
    4.0956   -1.4829   -2.2186 O   0  0  0  0  0  0  0  0  0  0  0  0
    2.6611   -0.0990    0.0977 C   0  0  0  0  0  0  0  0  0  0  0  0
    1.7643    0.9187    0.2680 N   0  0  0  0  0  0  0  0  0  0  0  0
    0.4498    0.7021    0.2187 C   0  0  0  0  0  0  0  0  0  0  0  0
   -0.0168   -0.5848   -0.0092 C   0  0  0  0  0  0  0  0  0  0  0  0
   -1.3209   -0.8304   -0.0804 N   0  0  0  0  0  0  0  0  0  0  0  0
   -2.2013    0.1683    0.0667 C   0  0  0  0  0  0  0  0  0  0  0  0
   -3.5732   -0.1006   -0.0217 N   0  0  0  0  0  0  0  0  0  0  0  0
   -4.2040   -0.1619   -1.3235 C   0  0  0  0  0  0  0  0  0  0  0  0
   -4.6335   -1.5786   -1.6252 C   0  0  0  0  0  0  0  0  0  0  0  0
   -5.2285   -1.6241   -2.8647 O   0  0  0  0  0  0  0  0  0  0  0  0
   -4.3509   -0.3092    1.1694 C   0  0  0  0  0  0  0  0  0  0  0  0
   -5.3277    0.8554    1.3622 C   0  0  0  0  0  0  0  0  0  0  0  0
   -6.1025    0.6977    2.4964 O   0  0  0  0  0  0  0  0  0  0  0  0
   -1.7661    1.4106    0.2865 N   0  0  0  0  0  0  0  0  0  0  0  0
   -0.4741    1.7343    0.3722 C   0  0  0  0  0  0  0  0  0  0  0  0
    0.0160    3.0288    0.6113 N   0  0  0  0  0  0  0  0  0  0  0  0
    0.9008    3.7355   -0.2940 C   0  0  0  0  0  0  0  0  0  0  0  0
    0.2170    5.0073   -0.7079 C   0  0  0  0  0  0  0  0  0  0  0  0
   -0.3296    5.7781    0.4548 C   0  0  0  0  0  0  0  0  0  0  0  0
   -0.0526    5.1685    1.7874 C   0  0  0  0  0  0  0  0  0  0  0  0
   -0.4005    3.6895    1.8536 C   0  0  0  0  0  0  0  0  0  0  0  0
    0.8718   -1.6388   -0.1848 C   0  0  0  0  0  0  0  0  0  0  0  0
    0.3447   -2.9431   -0.4030 N   0  0  0  0  0  0  0  0  0  0  0  0
   -0.4974   -3.6006    0.5826 C   0  0  0  0  0  0  0  0  0  0  0  0
   -1.1004   -4.8136   -0.0267 C   0  0  0  0  0  0  0  0  0  0  0  0
   -1.6486   -4.6163   -1.4184 C   0  0  0  0  0  0  0  0  0  0  0  0
   -0.5946   -4.0814   -2.3615 C   0  0  0  0  0  0  0  0  0  0  0  0
    0.6462   -3.6341   -1.6181 C   0  0  0  0  0  0  0  0  0  0  0  0
    2.1654   -1.3306   -0.1208 N   0  0  0  0  0  0  0  0  0  0  0  0
  1  2  1  0
  2  3  1  0
  3  4  1  0
  4  5  1  0
  5  6  1  0
  6  7  1  0
  4  8  1  0
  8  9  2  0
  9 10  1  0
 10 11  2  0
 11 12  1  0
 12 13  2  0
 13 14  1  0
 14 15  1  0
 15 16  1  0
 16 17  1  0
 14 18  1  0
 18 19  1  0
 19 20  1  0
 13 21  1  0
 21 22  2  0
 22 23  1  0
 23 24  1  0
 24 25  1  0
 25 26  1  0
 26 27  1  0
 27 28  1  0
 11 29  1  0
 29 30  1  0
 30 31  1  0
 31 32  1  0
 32 33  1  0
 33 34  1  0
 34 35  1  0
 29 36  2  0
 36  8  1  0
 22 10  1  0
 28 23  1  0
 35 30  1  0
M  END
>  <zinc_id>  (1) 
ZINC000000643046

>  <smiles>  (1) 
OCCN(CCO)c1nc(N2CCCCC2)c2nc(N(CCO)CCO)nc(N3CCCCC3)c2n1

$$$$
