
     RDKit          3D

 35 38  0  0  0  0  0  0  0  0999 V2000
   -0.9016   -1.4134   -1.7073 C   0  0  0  0  0  0  0  0  0  0  0  0
   -0.5046   -0.6923   -0.1963 C   0  0  1  0  0  0  0  0  0  0  0  0
   -0.3634    0.6973   -0.8469 O   0  0  0  0  0  0  0  0  0  0  0  0
    0.3702    1.4592    0.0766 C   0  0  0  0  0  0  0  0  0  0  0  0
    1.8407    1.1112   -0.0071 C   0  0  1  0  0  0  0  0  0  0  0  0
    2.4012    1.6416   -1.2913 C   0  0  0  0  0  0  0  0  0  0  0  0
    3.3547    2.5531   -1.4647 C   0  0  0  0  0  0  0  0  0  0  0  0
    3.8682    3.0809   -2.6160 C   0  0  0  0  0  0  0  0  0  0  0  0
    3.2986    2.5873   -3.8290 C   0  0  0  0  0  0  0  0  0  0  0  0
    2.3010    1.6494   -3.7123 C   0  0  0  0  0  0  0  0  0  0  0  0
    1.8444    1.1719   -2.5415 C   0  0  0  0  0  0  0  0  0  0  0  0
    2.5735    1.8101    1.0998 C   0  0  0  0  0  0  0  0  0  0  0  0
    3.6580    1.0241    1.7653 C   0  0  0  0  0  0  0  0  0  0  0  0
    4.3108   -0.0361    0.9683 C   0  0  1  0  0  0  0  0  0  0  0  0
    5.6926    0.3161    0.4258 C   0  0  0  0  0  0  0  0  0  0  0  0
    6.1277   -1.0524   -0.0874 C   0  0  0  0  0  0  0  0  0  0  0  0
    5.5122   -1.9834    0.9210 C   0  0  0  0  0  0  0  0  0  0  0  0
    5.7267   -3.2263    0.9058 O   0  0  0  0  0  0  0  0  0  0  0  0
    4.7125   -1.1929    1.8074 N   0  0  0  0  0  0  0  0  0  0  0  0
    3.4126   -0.6380   -0.0863 C   0  0  0  0  0  0  0  0  0  0  0  0
    2.0223   -0.2785    0.1991 N   0  0  0  0  0  0  0  0  0  0  0  0
   -2.0900   -0.5418    0.1486 C   0  0  0  0  0  0  0  0  0  0  0  0
   -2.7273   -1.7467    0.4175 C   0  0  0  0  0  0  0  0  0  0  0  0
   -4.1121   -1.8114    0.5988 C   0  0  0  0  0  0  0  0  0  0  0  0
   -4.8572   -3.0509    0.8732 C   0  0  0  0  0  0  0  0  0  0  0  0
   -5.7301   -2.9706    1.9346 F   0  0  0  0  0  0  0  0  0  0  0  0
   -5.5622   -3.4529   -0.2485 F   0  0  0  0  0  0  0  0  0  0  0  0
   -3.9332   -4.0949    1.0812 F   0  0  0  0  0  0  0  0  0  0  0  0
   -4.7619   -0.5999    0.4895 C   0  0  0  0  0  0  0  0  0  0  0  0
   -4.1278    0.5738    0.2231 C   0  0  0  0  0  0  0  0  0  0  0  0
   -4.9201    1.7990    0.0901 C   0  0  0  0  0  0  0  0  0  0  0  0
   -4.3255    2.7962   -0.6821 F   0  0  0  0  0  0  0  0  0  0  0  0
   -6.1584    1.5395   -0.5272 F   0  0  0  0  0  0  0  0  0  0  0  0
   -5.1872    2.3872    1.3178 F   0  0  0  0  0  0  0  0  0  0  0  0
   -2.7651    0.5846    0.0585 C   0  0  0  0  0  0  0  0  0  0  0  0
  2  1  1  6
  2  3  1  0
  3  4  1  0
  5  4  1  6
  5  6  1  0
  6  7  2  0
  7  8  1  0
  8  9  2  0
  9 10  1  0
 10 11  2  0
  5 12  1  0
 12 13  1  0
 14 13  1  1
 14 15  1  0
 15 16  1  0
 16 17  1  0
 17 18  2  0
 17 19  1  0
 14 20  1  0
 20 21  1  0
  2 22  1  0
 22 23  2  0
 23 24  1  0
 24 25  1  0
 25 26  1  0
 25 27  1  0
 25 28  1  0
 24 29  2  0
 29 30  1  0
 30 31  1  0
 31 32  1  0
 31 33  1  0
 31 34  1  0
 30 35  2  0
 21  5  1  0
 35 22  1  0
 11  6  1  0
 19 14  1  0
M  END
>  <zinc_id>  (1) 
ZINC000003816514

>  <smiles>  (1) 
C[C@@H](OC[C@@]1(c2ccccc2)CC[C@]2(CCC(=O)N2)CN1)c1cc(C(F)(F)F)cc(C(F)(F)F)c1

$$$$
