
     RDKit          3D

 27 29  0  0  0  0  0  0  0  0999 V2000
    7.8413   -0.3044   -1.8839 C   0  0  0  0  0  0  0  0  0  0  0  0
    6.4463   -0.6984   -2.0361 C   0  0  0  0  0  0  0  0  0  0  0  0
    5.9005   -1.4922   -0.8874 C   0  0  0  0  0  0  0  0  0  0  0  0
    4.4813   -1.9128   -1.0089 C   0  0  0  0  0  0  0  0  0  0  0  0
    3.4966   -0.7506   -1.1412 C   0  0  0  0  0  0  0  0  0  0  0  0
    3.6511    0.0733    0.0874 C   0  0  0  0  0  0  0  0  0  0  0  0
    2.7794    1.2840    0.1829 C   0  0  0  0  0  0  0  0  0  0  0  0
    3.0298    2.2408   -0.9887 C   0  0  0  0  0  0  0  0  0  0  0  0
    3.2728    2.0157    1.4590 C   0  0  0  0  0  0  0  0  0  0  0  0
    1.3460    1.0137    0.3761 C   0  0  0  0  0  0  0  0  0  0  0  0
    0.9382    0.2524    1.4381 C   0  0  0  0  0  0  0  0  0  0  0  0
   -0.4282    0.0289    1.6353 C   0  0  0  0  0  0  0  0  0  0  0  0
   -0.7831   -0.7524    2.7370 O   0  0  0  0  0  0  0  0  0  0  0  0
   -1.3446    0.5650    0.7788 C   0  0  0  0  0  0  0  0  0  0  0  0
   -0.9620    1.3141   -0.2711 C   0  0  0  0  0  0  0  0  0  0  0  0
    0.3911    1.5327   -0.4641 C   0  0  0  0  0  0  0  0  0  0  0  0
   -1.8394    1.8908   -1.1883 O   0  0  0  0  0  0  0  0  0  0  0  0
   -3.2059    1.6381   -0.9452 C   0  0  0  0  0  0  0  0  0  0  0  0
   -3.8044    2.4453    0.1514 C   0  0  0  0  0  0  0  0  0  0  0  0
   -4.0346    1.7146   -2.2336 C   0  0  0  0  0  0  0  0  0  0  0  0
   -3.2851    0.0699   -0.5719 C   0  0  2  0  0  0  0  0  0  0  0  0
   -4.8802    0.1046   -0.2542 C   0  0  0  0  0  0  0  0  0  0  0  0
   -5.1599   -0.8751    0.8174 C   0  0  0  0  0  0  0  0  0  0  0  0
   -4.0457   -1.8434    0.9782 C   0  0  0  0  0  0  0  0  0  0  0  0
   -4.2190   -3.0278    0.8295 O   0  0  0  0  0  0  0  0  0  0  0  0
   -2.7195   -1.2848    1.3271 C   0  0  0  0  0  0  0  0  0  0  0  0
   -2.8628    0.3178    1.0765 C   0  0  1  0  0  0  0  0  0  0  0  0
  1  2  1  0
  2  3  1  0
  3  4  1  0
  4  5  1  0
  5  6  1  0
  6  7  1  0
  7  8  1  0
  7  9  1  0
  7 10  1  0
 10 11  2  0
 11 12  1  0
 12 13  1  0
 12 14  2  0
 14 15  1  0
 15 16  2  0
 15 17  1  0
 17 18  1  0
 18 19  1  0
 18 20  1  0
 18 21  1  0
 21 22  1  1
 22 23  1  0
 23 24  1  0
 24 25  2  0
 24 26  1  0
 27 26  1  1
 16 10  1  0
 27 21  1  0
 27 14  1  0
M  END
>  <zinc_id>  (1) 
ZINC000001542930

>  <smiles>  (1) 
CCCCCCC(C)(C)c1cc(O)c2c(c1)OC(C)(C)[C@@H]1CCC(=O)C[C@@H]21

$$$$
