
     RDKit          3D

 33 33  0  0  0  0  0  0  0  0999 V2000
   -0.5712    2.1355    2.4588 O   0  0  0  0  0  0  0  0  0  0  0  0
   -0.4080    3.1675    1.8737 C   0  0  0  0  0  0  0  0  0  0  0  0
   -0.8979    4.3911    2.4734 C   0  0  0  0  0  0  0  0  0  0  0  0
   -0.6318    5.5118    1.6546 O   0  0  0  0  0  0  0  0  0  0  0  0
    0.2710    3.0078    0.6153 N   0  0  0  0  0  0  0  0  0  0  0  0
    0.7671    4.1246   -0.0850 C   0  0  0  0  0  0  0  0  0  0  0  0
    1.9080    4.8623    0.0807 C   0  0  0  0  0  0  0  0  0  0  0  0
    2.9243    5.4811    0.2217 O   0  0  0  0  0  0  0  0  0  0  0  0
    0.3392    1.6629    0.0692 C   0  0  0  0  0  0  0  0  0  0  0  0
   -0.9305    1.0494   -0.0137 C   0  0  0  0  0  0  0  0  0  0  0  0
   -2.6834    2.0921    0.2918 I   0  0  0  0  0  0  0  0  0  0  0  0
   -0.9963   -0.2987   -0.4418 C   0  0  0  0  0  0  0  0  0  0  0  0
   -2.2316   -1.0018   -0.5118 C   0  0  0  0  0  0  0  0  0  0  0  0
   -3.1779   -0.0903   -1.0337 O   0  0  0  0  0  0  0  0  0  0  0  0
   -2.7504   -2.1621   -0.2470 N   0  0  0  0  0  0  0  0  0  0  0  0
   -3.9169   -2.9190   -0.2631 C   0  0  0  0  0  0  0  0  0  0  0  0
   -5.0741   -2.1747    0.6927 C   0  0  2  0  0  0  0  0  0  0  0  0
   -6.0301   -3.3752    0.5140 O   0  0  0  0  0  0  0  0  0  0  0  0
   -5.7638   -1.4126   -0.6566 C   0  0  0  0  0  0  0  0  0  0  0  0
   -7.1040   -1.2544   -0.2148 O   0  0  0  0  0  0  0  0  0  0  0  0
    0.1877   -0.9379   -0.7588 C   0  0  0  0  0  0  0  0  0  0  0  0
    0.0080   -2.9762   -1.3309 I   0  0  0  0  0  0  0  0  0  0  0  0
    1.4093   -0.3373   -0.6845 C   0  0  0  0  0  0  0  0  0  0  0  0
    2.6082   -1.0555   -1.1322 C   0  0  0  0  0  0  0  0  0  0  0  0
    3.6170   -0.7726   -1.5469 O   0  0  0  0  0  0  0  0  0  0  0  0
    2.3848   -2.5957   -0.9941 N   0  0  0  0  0  0  0  0  0  0  0  0
    3.5469   -3.3967   -1.4708 C   0  0  0  0  0  0  0  0  0  0  0  0
    4.7489   -2.7034   -0.4230 C   0  0  2  0  0  0  0  0  0  0  0  0
    5.7964   -3.6804   -1.0756 O   0  0  0  0  0  0  0  0  0  0  0  0
    4.4162   -3.8695    0.7724 C   0  0  0  0  0  0  0  0  0  0  0  0
    3.4178   -3.2898    1.4953 O   0  0  0  0  0  0  0  0  0  0  0  0
    1.4636    0.9911   -0.2507 C   0  0  0  0  0  0  0  0  0  0  0  0
    3.3535    1.8267   -0.0786 I   0  0  0  0  0  0  0  0  0  0  0  0
  1  2  2  0
  2  3  1  0
  3  4  1  0
  2  5  1  0
  5  6  1  0
  6  7  1  0
  7  8  1  0
  5  9  1  0
  9 10  2  0
 10 11  1  0
 10 12  1  0
 12 13  1  0
 13 14  2  0
 13 15  1  0
 15 16  1  0
 16 17  1  0
 17 18  1  6
 17 19  1  0
 19 20  1  0
 12 21  2  0
 21 22  1  0
 21 23  1  0
 23 24  1  0
 24 25  2  0
 24 26  1  0
 26 27  1  0
 27 28  1  0
 28 29  1  6
 28 30  1  0
 30 31  1  0
 23 32  2  0
 32 33  1  0
 32  9  1  0
M  END
>  <zinc_id>  (1) 
ZINC000008143864

>  <smiles>  (1) 
O=C(NC[C@H](O)CO)c1c(I)c(C(=O)NC[C@H](O)CO)c(I)c(N(CCO)C(=O)CO)c1I

$$$$
