
     RDKit          3D

 30 32  0  0  0  0  0  0  0  0999 V2000
    0.5187   -3.5535   -1.1135 C   0  0  0  0  0  0  0  0  0  0  0  0
    0.1439   -3.4221   -0.7206 C   0  0  0  0  0  0  0  0  0  0  0  0
    0.0483   -4.2902    0.5515 C   0  0  0  0  0  0  0  0  0  0  0  0
   -0.8965   -2.4146   -0.7206 N   0  0  0  0  0  0  0  0  0  0  0  0
   -0.6630   -1.1147   -0.4801 C   0  0  0  0  0  0  0  0  0  0  0  0
    0.4785   -0.3716   -0.1892 C   0  0  0  0  0  0  0  0  0  0  0  0
    1.3647    0.3570    0.0600 C   0  0  0  0  0  0  0  0  0  0  0  0
    2.9275   -0.1758    0.2197 C   0  0  2  0  0  0  0  0  0  0  0  0
    2.7783   -0.1731    1.7292 O   0  0  0  0  0  0  0  0  0  0  0  0
    3.5824    1.3266    0.1049 C   0  0  0  0  0  0  0  0  0  0  0  0
    5.1102    0.7788    0.2213 C   0  0  2  0  0  0  0  0  0  0  0  0
    4.9979    0.2102    1.5882 O   0  0  0  0  0  0  0  0  0  0  0  0
    5.8636    2.1335    0.5856 C   0  0  0  0  0  0  0  0  0  0  0  0
    5.4341    2.7647    1.7895 C   0  0  0  0  0  0  0  0  0  0  0  0
    4.5538    2.4517    2.6040 O   0  0  0  0  0  0  0  0  0  0  0  0
    6.1094    3.9598    2.1455 O   0  0  0  0  0  0  0  0  0  0  0  0
   -1.9392   -0.5202   -0.5774 C   0  0  0  0  0  0  0  0  0  0  0  0
   -2.2931    0.8650   -0.4067 C   0  0  0  0  0  0  0  0  0  0  0  0
   -2.4939    1.3966    0.8532 C   0  0  0  0  0  0  0  0  0  0  0  0
   -2.8311    2.6976    1.0970 C   0  0  0  0  0  0  0  0  0  0  0  0
   -2.9843    3.5433    0.0217 C   0  0  0  0  0  0  0  0  0  0  0  0
   -3.3216    4.8545    0.2760 F   0  0  0  0  0  0  0  0  0  0  0  0
   -2.7984    3.0762   -1.2350 C   0  0  0  0  0  0  0  0  0  0  0  0
   -2.4600    1.7644   -1.4521 C   0  0  0  0  0  0  0  0  0  0  0  0
   -2.8706   -1.5026   -0.8713 C   0  0  0  0  0  0  0  0  0  0  0  0
   -4.2358   -1.5103   -1.0765 C   0  0  0  0  0  0  0  0  0  0  0  0
   -4.8844   -2.6839   -1.3587 C   0  0  0  0  0  0  0  0  0  0  0  0
   -4.2029   -3.8627   -1.4427 C   0  0  0  0  0  0  0  0  0  0  0  0
   -2.8533   -3.8931   -1.2458 C   0  0  0  0  0  0  0  0  0  0  0  0
   -2.1831   -2.6918   -0.9570 C   0  0  0  0  0  0  0  0  0  0  0  0
  1  2  1  0
  2  3  1  0
  2  4  1  0
  4  5  1  0
  5  6  1  0
  6  7  2  0
  7  8  1  0
  8  9  1  1
  8 10  1  0
 10 11  1  0
 11 12  1  1
 11 13  1  0
 13 14  1  0
 14 15  2  0
 14 16  1  0
  5 17  2  0
 17 18  1  0
 18 19  2  0
 19 20  1  0
 20 21  2  0
 21 22  1  0
 21 23  1  0
 23 24  2  0
 17 25  1  0
 25 26  2  0
 26 27  1  0
 27 28  2  0
 28 29  1  0
 29 30  2  0
 30  4  1  0
 24 18  1  0
 30 25  1  0
M  END
>  <zinc_id>  (1) 
ZINC000001530639

>  <smiles>  (1) 
CC(C)n1c(/C=C/[C@H](O)C[C@H](O)CC(=O)O)c(-c2ccc(F)cc2)c2ccccc21

$$$$
