
     RDKit          3D

 19 21  0  0  0  0  0  0  0  0999 V2000
    0.6255    3.6286    1.6524 O   0  0  0  0  0  0  0  0  0  0  0  0
    0.3877    2.6692    0.8633 C   0  0  0  0  0  0  0  0  0  0  0  0
    0.3601    2.7836   -0.5453 N   0  0  0  0  0  0  0  0  0  0  0  0
    0.0591    1.5015   -1.1321 C   0  0  0  0  0  0  0  0  0  0  0  0
   -0.1074    1.3860   -2.3726 O   0  0  0  0  0  0  0  0  0  0  0  0
    0.0079    0.5168   -0.0511 C   0  0  0  0  0  0  0  0  0  0  0  0
    1.1471   -0.4273   -0.0254 C   0  0  0  0  0  0  0  0  0  0  0  0
    0.9377   -1.8014    0.0045 C   0  0  0  0  0  0  0  0  0  0  0  0
    2.0054   -2.6736    0.0270 C   0  0  0  0  0  0  0  0  0  0  0  0
    3.3137   -2.2443    0.0207 C   0  0  0  0  0  0  0  0  0  0  0  0
    3.5327   -0.8853   -0.0089 C   0  0  0  0  0  0  0  0  0  0  0  0
    2.4635   -0.0165   -0.0309 C   0  0  0  0  0  0  0  0  0  0  0  0
   -1.2642   -0.2477    0.0036 C   0  0  0  0  0  0  0  0  0  0  0  0
   -1.6080   -1.1404   -0.9968 C   0  0  0  0  0  0  0  0  0  0  0  0
   -2.8037   -1.8371   -0.9177 C   0  0  0  0  0  0  0  0  0  0  0  0
   -3.6730   -1.6643    0.1444 C   0  0  0  0  0  0  0  0  0  0  0  0
   -3.3403   -0.7717    1.1553 C   0  0  0  0  0  0  0  0  0  0  0  0
   -2.1493   -0.0956    1.0498 C   0  0  0  0  0  0  0  0  0  0  0  0
    0.1054    1.3195    1.1596 N   0  0  0  0  0  0  0  0  0  0  0  0
  1  2  2  0
  2  3  1  0
  3  4  1  0
  4  5  2  0
  4  6  1  0
  6  7  1  0
  7  8  2  0
  8  9  1  0
  9 10  2  0
 10 11  1  0
 11 12  2  0
  6 13  1  0
 13 14  2  0
 14 15  1  0
 15 16  2  0
 16 17  1  0
 17 18  2  0
  6 19  1  0
 19  2  1  0
 12  7  1  0
 18 13  1  0
M  END
>  <zinc_id>  (1) 
ZINC000002510358

>  <smiles>  (1) 
O=C1NC(=O)C(c2ccccc2)(c2ccccc2)N1

$$$$
