
     RDKit          3D

 15 17  0  0  0  0  0  0  0  0999 V2000
   -2.7510   -1.6046   -0.4887 C   0  0  0  0  0  0  0  0  0  0  0  0
   -1.6282   -2.1204    0.0993 C   0  0  0  0  0  0  0  0  0  0  0  0
   -0.6211   -1.2823    0.5347 C   0  0  0  0  0  0  0  0  0  0  0  0
   -0.7855    0.0326    0.3610 C   0  0  0  0  0  0  0  0  0  0  0  0
   -1.8960    0.5696   -0.2222 C   0  0  0  0  0  0  0  0  0  0  0  0
   -2.8898   -0.2682   -0.6512 C   0  0  0  0  0  0  0  0  0  0  0  0
   -1.9634    2.0525   -0.3542 C   0  0  0  0  0  0  0  0  0  0  0  0
   -0.6782    2.6049   -0.9025 C   0  0  0  0  0  0  0  0  0  0  0  0
    0.4887    1.7114   -0.7065 C   0  0  0  0  0  0  0  0  0  0  0  0
    0.3128    1.0866    0.8341 C   0  0  2  0  0  0  0  0  0  0  0  0
    1.5505    0.1164    0.7351 C   0  0  0  0  0  0  0  0  0  0  0  0
    2.1884   -0.0684    1.8203 N   0  0  0  0  0  0  0  0  0  0  0  0
    3.3055   -0.9623    1.6650 C   0  0  0  0  0  0  0  0  0  0  0  0
    3.2718   -1.2870    0.1884 C   0  0  0  0  0  0  0  0  0  0  0  0
    2.0955   -0.5809   -0.2822 N   0  0  0  0  0  0  0  0  0  0  0  0
  1  2  2  0
  2  3  1  0
  3  4  2  0
  4  5  1  0
  5  6  2  0
  5  7  1  0
  7  8  1  0
  8  9  1  0
  9 10  1  0
 10 11  1  6
 11 12  2  0
 12 13  1  0
 13 14  1  0
 14 15  1  0
  6  1  1  0
 15 11  1  0
 10  4  1  0
M  END
>  <zinc_id>  (1) 
ZINC000000113428

>  <smiles>  (1) 
c1ccc2c(c1)CCC[C@@H]2C1=NCCN1

$$$$
