
     RDKit          3D

 22 22  0  0  0  0  0  0  0  0999 V2000
   -5.5560   -2.5644   -0.5938 C   0  0  0  0  0  0  0  0  0  0  0  0
   -4.1691   -3.1499   -0.4258 C   0  0  0  0  0  0  0  0  0  0  0  0
   -3.3012   -2.0575   -0.2367 O   0  0  0  0  0  0  0  0  0  0  0  0
   -1.9494   -2.1372   -0.0447 C   0  0  0  0  0  0  0  0  0  0  0  0
   -1.4276   -3.2613   -0.0336 O   0  0  0  0  0  0  0  0  0  0  0  0
   -1.1165   -0.9122    0.1471 C   0  0  0  0  0  0  0  0  0  0  0  0
    0.1248   -0.9001    0.3264 C   0  0  0  0  0  0  0  0  0  0  0  0
    1.1165    0.2679    0.5389 C   0  0  1  0  0  0  0  0  0  0  0  0
    1.8270    0.2625   -0.7659 O   0  0  0  0  0  0  0  0  0  0  0  0
    2.5331   -0.8325   -0.9009 C   0  0  0  0  0  0  0  0  0  0  0  0
    1.8918   -2.1371   -0.9459 C   0  0  0  0  0  0  0  0  0  0  0  0
    2.8919   -3.2361   -1.1040 C   0  0  0  0  0  0  0  0  0  0  0  0
    3.9422   -0.8178   -0.3666 C   0  0  0  0  0  0  0  0  0  0  0  0
    4.6944    0.2788   -1.1007 C   0  0  0  0  0  0  0  0  0  0  0  0
    0.1131    1.5829    0.1112 C   0  0  2  0  0  0  0  0  0  0  0  0
    0.7879    2.5476    1.1113 N   0  0  0  0  0  0  0  0  0  0  0  0
    0.7759    3.9229    0.7367 C   0  0  0  0  0  0  0  0  0  0  0  0
    1.4006    4.9296    1.6332 C   0  0  0  0  0  0  0  0  0  0  0  0
    0.2579    4.3091   -0.3195 O   0  0  0  0  0  0  0  0  0  0  0  0
   -1.0681    1.1038    1.2891 C   0  0  1  0  0  0  0  0  0  0  0  0
   -1.8576    2.4605    1.1013 N   0  0  0  0  0  0  0  0  0  0  0  0
   -1.9118    0.3403    0.1019 C   0  0  0  0  0  0  0  0  0  0  0  0
  1  2  1  0
  2  3  1  0
  3  4  1  0
  4  5  2  0
  4  6  1  0
  6  7  2  0
  7  8  1  0
  8  9  1  6
  9 10  1  0
 10 11  1  0
 11 12  1  0
 10 13  1  0
 13 14  1  0
  8 15  1  0
 15 16  1  1
 16 17  1  0
 17 18  1  0
 17 19  2  0
 15 20  1  0
 20 21  1  6
 20 22  1  0
 22  6  1  0
M  END
>  <zinc_id>  (1) 
ZINC000003929508

>  <smiles>  (1) 
CCOC(=O)C1=C[C@@H](OC(CC)CC)[C@H](NC(C)=O)[C@@H](N)C1

$$$$
