
     RDKit          3D

 24 26  0  0  0  0  0  0  0  0999 V2000
   -3.5363   -1.2305    0.0826 C   0  0  0  0  0  0  0  0  0  0  0  0
   -3.2839   -1.0408    0.1314 C   0  0  0  0  0  0  0  0  0  0  0  0
   -4.5607   -0.5082   -0.1330 C   0  0  0  0  0  0  0  0  0  0  0  0
   -1.9454   -0.9288   -1.0401 S   0  0  0  0  0  0  0  0  0  0  0  0
   -2.0588    0.9089   -0.5830 C   0  0  2  0  0  0  0  0  0  0  0  0
   -0.4870    1.4659   -0.5118 C   0  0  2  0  0  0  0  0  0  0  0  0
    0.2909    0.2014   -0.0203 N   0  0  0  0  0  0  0  0  0  0  0  0
    1.1210   -0.3458   -0.8988 C   0  0  0  0  0  0  0  0  0  0  0  0
    1.2514    0.1486   -2.0599 O   0  0  0  0  0  0  0  0  0  0  0  0
    2.0419   -1.6387   -0.6674 C   0  0  2  0  0  0  0  0  0  0  0  0
    1.6840   -1.8674    0.8463 N   0  0  0  0  0  0  0  0  0  0  0  0
    3.3970   -0.8603   -0.3781 C   0  0  0  0  0  0  0  0  0  0  0  0
    3.7169    0.2580   -1.0658 C   0  0  0  0  0  0  0  0  0  0  0  0
    4.8857    0.9228   -0.8162 C   0  0  0  0  0  0  0  0  0  0  0  0
    5.7396    0.4581    0.1334 C   0  0  0  0  0  0  0  0  0  0  0  0
    5.4451   -0.6818    0.8550 C   0  0  0  0  0  0  0  0  0  0  0  0
    4.2549   -1.3287    0.5769 C   0  0  0  0  0  0  0  0  0  0  0  0
   -0.9276    1.8268    1.0009 C   0  0  0  0  0  0  0  0  0  0  0  0
   -0.6147    2.6827    1.7866 O   0  0  0  0  0  0  0  0  0  0  0  0
   -1.7781    0.7146    0.8981 N   0  0  0  0  0  0  0  0  0  0  0  0
   -2.5122   -0.5135    1.4405 C   0  0  1  0  0  0  0  0  0  0  0  0
   -3.7118    0.2462    2.1113 C   0  0  0  0  0  0  0  0  0  0  0  0
   -4.5538   -0.4859    2.6399 O   0  0  0  0  0  0  0  0  0  0  0  0
   -3.8581    1.5964    2.1364 O   0  0  0  0  0  0  0  0  0  0  0  0
  1  2  1  0
  2  3  1  0
  2  4  1  0
  5  4  1  6
  5  6  1  0
  6  7  1  1
  7  8  1  0
  8  9  2  0
  8 10  1  0
 10 11  1  1
 10 12  1  0
 12 13  2  0
 13 14  1  0
 14 15  2  0
 15 16  1  0
 16 17  2  0
  6 18  1  0
 18 19  2  0
 18 20  1  0
 20 21  1  0
 21 22  1  1
 22 23  2  0
 22 24  1  0
 21  2  1  0
 20  5  1  0
 17 12  1  0
M  END
>  <zinc_id>  (1) 
ZINC000003830218

>  <smiles>  (1) 
CC1(C)S[C@@H]2[C@H](NC(=O)[C@H](N)c3ccccc3)C(=O)N2[C@H]1C(=O)O

$$$$
