
     RDKit          3D

 18 19  0  0  0  0  0  0  0  0999 V2000
   -2.5235    2.6097   -0.7203 C   0  0  0  0  0  0  0  0  0  0  0  0
   -2.0265    1.4540   -0.4735 N   0  0  0  0  0  0  0  0  0  0  0  0
   -0.7064    1.3280   -0.1698 C   0  0  0  0  0  0  0  0  0  0  0  0
    0.2729    2.2316   -0.0636 N   0  0  0  0  0  0  0  0  0  0  0  0
    1.3890    1.6157    0.2540 C   0  0  0  0  0  0  0  0  0  0  0  0
    1.2034    0.2941    0.3713 N   0  0  0  0  0  0  0  0  0  0  0  0
    2.0895   -0.7746    0.7225 C   0  0  0  0  0  0  0  0  0  0  0  0
    2.6382   -1.3585   -0.6916 C   0  0  2  0  0  0  0  0  0  0  0  0
    3.4649   -2.4373    0.0532 O   0  0  0  0  0  0  0  0  0  0  0  0
    3.9475   -0.3897   -0.7607 C   0  0  0  0  0  0  0  0  0  0  0  0
    3.6452    0.7314   -1.4521 O   0  0  0  0  0  0  0  0  0  0  0  0
   -0.1280    0.1174    0.1013 C   0  0  0  0  0  0  0  0  0  0  0  0
   -0.8925   -1.0127    0.0691 C   0  0  0  0  0  0  0  0  0  0  0  0
   -0.3950   -2.1239    0.3106 O   0  0  0  0  0  0  0  0  0  0  0  0
   -2.2170   -0.9083   -0.2330 N   0  0  0  0  0  0  0  0  0  0  0  0
   -3.0476   -2.0843   -0.2741 C   0  0  0  0  0  0  0  0  0  0  0  0
   -2.7482    0.3011   -0.4936 C   0  0  0  0  0  0  0  0  0  0  0  0
   -3.9658    0.4062   -0.7724 O   0  0  0  0  0  0  0  0  0  0  0  0
  1  2  1  0
  2  3  1  0
  3  4  1  0
  4  5  2  0
  5  6  1  0
  6  7  1  0
  7  8  1  0
  8  9  1  1
  8 10  1  0
 10 11  1  0
  6 12  1  0
 12 13  1  0
 13 14  2  0
 13 15  1  0
 15 16  1  0
 15 17  1  0
 17 18  2  0
 17  2  1  0
 12  3  2  0
M  END
>  <zinc_id>  (1) 
ZINC000000057146

>  <smiles>  (1) 
Cn1c(=O)c2c(ncn2C[C@H](O)CO)n(C)c1=O

$$$$
