
     RDKit          3D

 22 25  0  0  0  0  0  0  0  0999 V2000
    1.6038   -1.0009   -2.7489 C   0  0  0  0  0  0  0  0  0  0  0  0
    1.2366   -0.8899   -1.7099 C   0  0  0  0  0  0  0  0  0  0  0  0
   -0.1505   -1.2208   -1.2862 C   0  0  0  0  0  0  0  0  0  0  0  0
   -0.6656    0.0613   -0.5386 C   0  0  1  0  0  0  0  0  0  0  0  0
   -2.0313   -0.7525    0.0681 C   0  0  2  0  0  0  0  0  0  0  0  0
   -2.8768   -0.6027   -1.2998 C   0  0  0  0  0  0  0  0  0  0  0  0
   -4.2555   -0.6188   -0.6038 C   0  0  0  0  0  0  0  0  0  0  0  0
   -4.0471    0.1032    0.6788 C   0  0  0  0  0  0  0  0  0  0  0  0
   -4.8654    0.1939    1.5455 O   0  0  0  0  0  0  0  0  0  0  0  0
   -2.6996    0.6359    0.6279 C   0  0  2  0  0  0  0  0  0  0  0  0
   -2.6343    1.6469   -0.4779 C   0  0  0  0  0  0  0  0  0  0  0  0
   -1.9508    0.8693    1.8375 C   0  0  0  0  0  0  0  0  0  0  0  0
   -0.5166    1.1160    1.6062 C   0  0  0  0  0  0  0  0  0  0  0  0
    0.1403   -0.2391    0.9485 C   0  0  2  0  0  0  0  0  0  0  0  0
    1.4974    0.4519    0.4459 C   0  0  1  0  0  0  0  0  0  0  0  0
    1.1720    1.7615   -0.2373 C   0  0  0  0  0  0  0  0  0  0  0  0
    2.4128    0.7480    1.4958 C   0  0  0  0  0  0  0  0  0  0  0  0
    3.6439    0.3686    1.6170 C   0  0  0  0  0  0  0  0  0  0  0  0
    4.2250   -0.4865    0.5852 C   0  0  0  0  0  0  0  0  0  0  0  0
    5.4102   -0.8852    0.6208 O   0  0  0  0  0  0  0  0  0  0  0  0
    3.2894   -0.8173   -0.4693 C   0  0  0  0  0  0  0  0  0  0  0  0
    2.0620   -0.4431   -0.5757 C   0  0  0  0  0  0  0  0  0  0  0  0
  1  2  2  0
  2  3  1  0
  4  3  1  6
  4  5  1  0
  5  6  1  6
  6  7  1  0
  7  8  1  0
  8  9  2  0
  8 10  1  0
 10 11  1  6
 10 12  1  0
 12 13  1  0
 14 13  1  1
 14 15  1  0
 15 16  1  6
 15 17  1  0
 17 18  2  0
 18 19  1  0
 19 20  2  0
 19 21  1  0
 21 22  2  0
 22  2  1  0
 14  4  1  0
 22 15  1  0
 10  5  1  0
M  END
>  <zinc_id>  (1) 
ZINC000003973334

>  <smiles>  (1) 
C=C1C[C@@H]2[C@H](CC[C@]3(C)C(=O)CC[C@@H]23)[C@@]2(C)C=CC(=O)C=C12

$$$$
