
     RDKit          3D

  8  8  0  0  0  0  0  0  0  0999 V2000
    2.7990    0.0543    0.0269 O   0  0  0  0  0  0  0  0  0  0  0  0
    1.3909    0.0254    0.0041 C   0  0  0  0  0  0  0  0  0  0  0  0
    0.6582    0.2146    1.1597 C   0  0  0  0  0  0  0  0  0  0  0  0
   -0.7199    0.1961    1.1936 C   0  0  0  0  0  0  0  0  0  0  0  0
   -1.3859   -0.0237    0.0049 C   0  0  0  0  0  0  0  0  0  0  0  0
   -2.7928   -0.0574   -0.0453 O   0  0  0  0  0  0  0  0  0  0  0  0
   -0.6661   -0.2151   -1.1620 C   0  0  0  0  0  0  0  0  0  0  0  0
    0.7166   -0.1941   -1.1820 C   0  0  0  0  0  0  0  0  0  0  0  0
  1  2  1  0
  2  3  2  0
  3  4  1  0
  4  5  2  0
  5  6  1  0
  5  7  1  0
  7  8  2  0
  8  2  1  0
M  END
>  <zinc_id>  (1) 
ZINC000005133378

>  <smiles>  (1) 
Oc1ccc(O)cc1

$$$$
