
     RDKit          3D

 15 14  0  0  0  0  0  0  0  0999 V2000
    3.8734   -2.1507    0.1725 C   0  0  0  0  0  0  0  0  0  0  0  0
    2.4361   -2.0159    0.6322 C   0  0  0  0  0  0  0  0  0  0  0  0
    1.8303   -0.8815   -0.1635 C   0  0  0  0  0  0  0  0  0  0  0  0
    0.3617   -0.6685    0.2371 C   0  0  0  0  0  0  0  0  0  0  0  0
    0.4519   -0.3395    1.7413 C   0  0  0  0  0  0  0  0  0  0  0  0
   -0.4643   -1.8399   -0.0327 C   0  0  0  0  0  0  0  0  0  0  0  0
   -1.7678   -1.7861    0.2895 O   0  0  0  0  0  0  0  0  0  0  0  0
   -2.8452   -1.0853   -0.1219 C   0  0  0  0  0  0  0  0  0  0  0  0
   -4.1608   -1.2617    0.4673 N   0  0  0  0  0  0  0  0  0  0  0  0
   -2.7323   -0.2588   -1.0306 O   0  0  0  0  0  0  0  0  0  0  0  0
   -0.0197    0.6087   -0.4674 C   0  0  0  0  0  0  0  0  0  0  0  0
    0.8452    1.6232    0.0153 O   0  0  0  0  0  0  0  0  0  0  0  0
    0.7409    2.9120   -0.4451 C   0  0  0  0  0  0  0  0  0  0  0  0
    1.5972    3.9768    0.0156 N   0  0  0  0  0  0  0  0  0  0  0  0
   -0.1463    3.1673   -1.3096 O   0  0  0  0  0  0  0  0  0  0  0  0
  1  2  1  0
  2  3  1  0
  3  4  1  0
  4  5  1  0
  4  6  1  0
  6  7  1  0
  7  8  1  0
  8  9  1  0
  8 10  2  0
  4 11  1  0
 11 12  1  0
 12 13  1  0
 13 14  1  0
 13 15  2  0
M  END
>  <zinc_id>  (1) 
ZINC000001530701

>  <smiles>  (1) 
CCCC(C)(COC(N)=O)COC(N)=O

$$$$
