
     RDKit          3D

 22 25  0  0  0  0  0  0  0  0999 V2000
   -4.5067   -0.5217    1.8801 C   0  0  0  0  0  0  0  0  0  0  0  0
   -3.7849    0.0679    0.7474 C   0  0  2  0  0  0  0  0  0  0  0  0
   -4.4843    1.2541    0.4497 O   0  0  0  0  0  0  0  0  0  0  0  0
   -3.9814   -0.6956   -0.5517 C   0  0  0  0  0  0  0  0  0  0  0  0
   -2.6766   -0.4419   -1.2831 C   0  0  0  0  0  0  0  0  0  0  0  0
   -1.7573   -0.9952   -0.0536 C   0  0  1  0  0  0  0  0  0  0  0  0
   -0.3893   -0.1936   -0.5643 C   0  0  2  0  0  0  0  0  0  0  0  0
    0.1559   -1.4900   -1.3746 C   0  0  0  0  0  0  0  0  0  0  0  0
    1.5251   -0.9886   -1.8006 C   0  0  0  0  0  0  0  0  0  0  0  0
    2.3473   -1.1992   -0.3834 C   0  0  1  0  0  0  0  0  0  0  0  0
    3.7443   -0.6950   -0.9771 C   0  0  0  0  0  0  0  0  0  0  0  0
    4.2376    0.5452   -0.4623 C   0  0  0  0  0  0  0  0  0  0  0  0
    5.0030    1.1975   -1.2398 O   0  0  0  0  0  0  0  0  0  0  0  0
    3.8967    1.0014    0.8086 O   0  0  0  0  0  0  0  0  0  0  0  0
    2.7943    0.3193    1.3960 C   0  0  0  0  0  0  0  0  0  0  0  0
    1.8108    0.1976    0.2855 C   0  0  1  0  0  0  0  0  0  0  0  0
    1.6316    1.2385   -0.6514 C   0  0  0  0  0  0  0  0  0  0  0  0
    0.5246   -0.6170    0.7744 C   0  0  1  0  0  0  0  0  0  0  0  0
   -0.1579    0.4301    1.8241 C   0  0  0  0  0  0  0  0  0  0  0  0
   -1.5667   -0.1112    2.0829 C   0  0  0  0  0  0  0  0  0  0  0  0
   -2.3369    0.1775    0.8948 C   0  0  2  0  0  0  0  0  0  0  0  0
   -2.0291    1.5200    0.3989 C   0  0  0  0  0  0  0  0  0  0  0  0
  2  1  1  1
  2  3  1  0
  2  4  1  0
  4  5  1  0
  6  5  1  6
  6  7  1  0
  7  8  1  6
  8  9  1  0
 10  9  1  6
 10 11  1  0
 11 12  1  0
 12 13  2  0
 12 14  1  0
 14 15  1  0
 15 16  1  0
 16 17  1  6
 16 18  1  0
 18 19  1  1
 19 20  1  0
 20 21  1  0
 21 22  1  6
 21  2  1  0
 21  6  1  0
 18  7  1  0
 16 10  1  0
M  END
>  <zinc_id>  (1) 
ZINC000003813047

>  <smiles>  (1) 
C[C@]12COC(=O)C[C@@H]1CC[C@@H]1[C@@H]2CC[C@@]2(C)[C@H]1CC[C@]2(C)O

$$$$
