
     RDKit          3D

 20 20  0  0  0  0  0  0  0  0999 V2000
    6.3012    1.2523    0.8958 C   0  0  0  0  0  0  0  0  0  0  0  0
    5.4112    2.1391    0.6239 C   0  0  0  0  0  0  0  0  0  0  0  0
    4.0632    1.8975    1.3044 C   0  0  0  0  0  0  0  0  0  0  0  0
    3.5615    0.5495    0.8269 C   0  0  0  0  0  0  0  0  0  0  0  0
    3.4284    0.6819   -0.7874 C   0  0  1  0  0  0  0  0  0  0  0  0
    2.8899   -0.8609   -1.0044 C   0  0  0  0  0  0  0  0  0  0  0  0
    3.9997   -1.6909   -0.4662 C   0  0  0  0  0  0  0  0  0  0  0  0
    1.9719    1.3281   -0.7639 C   0  0  0  0  0  0  0  0  0  0  0  0
    0.9555    0.8921   -0.3326 O   0  0  0  0  0  0  0  0  0  0  0  0
    0.0473    0.4075    0.5109 C   0  0  0  0  0  0  0  0  0  0  0  0
    0.5973    0.3715    1.5958 O   0  0  0  0  0  0  0  0  0  0  0  0
   -1.3078   -0.0049    0.2642 C   0  0  0  0  0  0  0  0  0  0  0  0
   -2.0229   -0.4740    1.3612 C   0  0  0  0  0  0  0  0  0  0  0  0
   -3.3254   -0.8961    1.2494 C   0  0  0  0  0  0  0  0  0  0  0  0
   -3.9863   -0.8741    0.0397 C   0  0  0  0  0  0  0  0  0  0  0  0
   -5.3337   -1.3085   -0.0842 N   0  0  0  0  0  0  0  0  0  0  0  0
   -6.3788   -0.3210    0.0944 C   0  0  0  0  0  0  0  0  0  0  0  0
   -5.6323   -2.6970   -0.3791 C   0  0  0  0  0  0  0  0  0  0  0  0
   -3.2735   -0.4073   -1.0498 C   0  0  0  0  0  0  0  0  0  0  0  0
   -1.9663    0.0152   -0.9320 C   0  0  0  0  0  0  0  0  0  0  0  0
  1  2  1  0
  2  3  1  0
  3  4  1  0
  5  4  1  1
  5  6  1  0
  6  7  1  0
  5  8  1  0
  8  9  1  0
  9 10  1  0
 10 11  2  0
 10 12  1  0
 12 13  2  0
 13 14  1  0
 14 15  2  0
 15 16  1  0
 16 17  1  0
 16 18  1  0
 15 19  1  0
 19 20  2  0
 20 12  1  0
M  END
>  <zinc_id>  (1) 
ZINC000002016257

>  <smiles>  (1) 
CCCC[C@@H](CC)COC(=O)c1ccc(N(C)C)cc1

$$$$
