
     RDKit          3D

 31 31  0  0  0  0  0  0  0  0999 V2000
    1.6146    5.7028   -0.7183 C   0  0  0  0  0  0  0  0  0  0  0  0
    0.3417    5.5364    0.3474 C   0  0  2  0  0  0  0  0  0  0  0  0
    1.1927    5.0149    1.4477 O   0  0  0  0  0  0  0  0  0  0  0  0
   -0.2049    4.2473   -0.2742 C   0  0  0  0  0  0  0  0  0  0  0  0
   -0.9847    4.1832   -1.2327 O   0  0  0  0  0  0  0  0  0  0  0  0
    0.1562    3.0989    0.2175 N   0  0  0  0  0  0  0  0  0  0  0  0
   -0.0108    1.7472    0.0747 C   0  0  0  0  0  0  0  0  0  0  0  0
   -1.2160    1.1617    0.3584 C   0  0  0  0  0  0  0  0  0  0  0  0
   -2.8210    2.3940    0.9059 I   0  0  0  0  0  0  0  0  0  0  0  0
   -1.3921   -0.2432    0.2815 C   0  0  0  0  0  0  0  0  0  0  0  0
   -2.7096   -0.7917    0.6000 C   0  0  0  0  0  0  0  0  0  0  0  0
   -3.6578   -0.0292    0.8526 O   0  0  0  0  0  0  0  0  0  0  0  0
   -2.8349   -2.2058    0.6069 N   0  0  0  0  0  0  0  0  0  0  0  0
   -4.0839   -2.8264    0.9157 C   0  0  0  0  0  0  0  0  0  0  0  0
   -4.8627   -2.1697    2.0227 C   0  0  0  0  0  0  0  0  0  0  0  0
   -4.0528   -2.2172    3.1768 O   0  0  0  0  0  0  0  0  0  0  0  0
   -4.9005   -3.1825   -0.2849 C   0  0  0  0  0  0  0  0  0  0  0  0
   -5.2193   -2.0721   -1.0461 O   0  0  0  0  0  0  0  0  0  0  0  0
   -0.3164   -1.0323   -0.0899 C   0  0  0  0  0  0  0  0  0  0  0  0
   -0.6555   -3.1038   -0.1780 I   0  0  0  0  0  0  0  0  0  0  0  0
    0.9070   -0.4698   -0.3823 C   0  0  0  0  0  0  0  0  0  0  0  0
    2.0313   -1.3140   -0.7491 C   0  0  0  0  0  0  0  0  0  0  0  0
    1.9835   -2.5421   -0.9405 O   0  0  0  0  0  0  0  0  0  0  0  0
    3.3049   -0.6724   -0.9013 N   0  0  0  0  0  0  0  0  0  0  0  0
    4.5057   -1.3599   -1.2537 C   0  0  0  0  0  0  0  0  0  0  0  0
    5.4084   -1.3946   -0.0245 C   0  0  0  0  0  0  0  0  0  0  0  0
    4.8200   -2.0401    1.0387 O   0  0  0  0  0  0  0  0  0  0  0  0
    4.2761   -2.7797   -1.7122 C   0  0  0  0  0  0  0  0  0  0  0  0
    5.4963   -3.3460   -2.0314 O   0  0  0  0  0  0  0  0  0  0  0  0
    1.0164    0.9251   -0.2889 C   0  0  0  0  0  0  0  0  0  0  0  0
    2.8681    1.7809   -0.7385 I   0  0  0  0  0  0  0  0  0  0  0  0
  2  1  1  6
  2  3  1  0
  2  4  1  0
  4  5  2  0
  4  6  1  0
  6  7  1  0
  7  8  2  0
  8  9  1  0
  8 10  1  0
 10 11  1  0
 11 12  2  0
 11 13  1  0
 13 14  1  0
 14 15  1  0
 15 16  1  0
 14 17  1  0
 17 18  1  0
 10 19  2  0
 19 20  1  0
 19 21  1  0
 21 22  1  0
 22 23  2  0
 22 24  1  0
 24 25  1  0
 25 26  1  0
 26 27  1  0
 25 28  1  0
 28 29  1  0
 21 30  2  0
 30 31  1  0
 30  7  1  0
M  END
>  <zinc_id>  (1) 
ZINC000003830947

>  <smiles>  (1) 
C[C@H](O)C(=O)Nc1c(I)c(C(=O)NC(CO)CO)c(I)c(C(=O)NC(CO)CO)c1I

$$$$
