
     RDKit          2D

  9  8  0  0  0  0  0  0  0  0999 V2000
   -1.6838   -1.7154    0.0000 O   0  0  0  0  0  0  0  0  0  0  0  0
   -1.7266   -0.2160    0.0000 C   0  0  0  0  0  0  0  0  0  0  0  0
   -3.0465    0.4967    0.0000 O   0  0  0  0  0  0  0  0  0  0  0  0
   -0.4495    0.5707    0.0000 C   0  0  0  0  0  0  0  0  0  0  0  0
   -0.4922    2.0701    0.0000 O   0  0  0  0  0  0  0  0  0  0  0  0
    0.8704   -0.1419    0.0000 C   0  0  0  0  0  0  0  0  0  0  0  0
    0.9132   -1.6413    0.0000 O   0  0  0  0  0  0  0  0  0  0  0  0
    2.1475    0.6448    0.0000 C   0  0  0  0  0  0  0  0  0  0  0  0
    3.4674   -0.0678    0.0000 O   0  0  0  0  0  0  0  0  0  0  0  0
  1  2  2  0
  2  3  1  0
  2  4  1  0
  4  5  1  6
  4  6  1  0
  6  7  1  6
  6  8  1  0
  8  9  1  0
M  END
>  <zinc_id>  (1) 
ZINC000000901061

>  <smiles>  (1) 
O=C(O)[C@H](O)[C@@H](O)CO

$$$$
