
     RDKit          3D

 18 19  0  0  0  0  0  0  0  0999 V2000
   -1.0737    1.5522   -0.1084 C   0  0  0  0  0  0  0  0  0  0  0  0
   -0.6287    0.7520    1.2347 C   0  0  1  0  0  0  0  0  0  0  0  0
   -1.0581   -0.7091    0.6765 C   0  0  0  0  0  0  0  0  0  0  0  0
   -2.5167   -0.5348    0.4288 C   0  0  0  0  0  0  0  0  0  0  0  0
   -3.4483   -0.7795    1.4412 C   0  0  0  0  0  0  0  0  0  0  0  0
   -4.7989   -0.6353    1.2327 C   0  0  0  0  0  0  0  0  0  0  0  0
   -5.2826   -0.2443    0.0172 C   0  0  0  0  0  0  0  0  0  0  0  0
   -4.3920   -0.0015   -0.9805 C   0  0  0  0  0  0  0  0  0  0  0  0
   -3.0388   -0.1449   -0.7748 C   0  0  0  0  0  0  0  0  0  0  0  0
    0.8712    0.6132    0.8620 N   0  0  0  0  0  0  0  0  0  0  0  0
    1.4501   -0.1989    1.9150 C   0  0  0  0  0  0  0  0  0  0  0  0
    1.0156   -0.0560   -0.3665 C   0  0  0  0  0  0  0  0  0  0  0  0
    2.4377   -0.1679   -0.6803 C   0  0  0  0  0  0  0  0  0  0  0  0
    3.1748    0.7359   -1.3871 C   0  0  0  0  0  0  0  0  0  0  0  0
    4.5187    0.5563   -1.6418 C   0  0  0  0  0  0  0  0  0  0  0  0
    5.1929   -0.5734   -1.1813 C   0  0  0  0  0  0  0  0  0  0  0  0
    4.4598   -1.4890   -0.4688 C   0  0  0  0  0  0  0  0  0  0  0  0
    3.1171   -1.3019   -0.2188 C   0  0  0  0  0  0  0  0  0  0  0  0
  2  1  1  6
  2  3  1  0
  3  4  1  0
  4  5  2  0
  5  6  1  0
  6  7  2  0
  7  8  1  0
  8  9  2  0
  2 10  1  0
 10 11  1  0
 10 12  1  0
 12 13  1  0
 13 14  2  0
 14 15  1  0
 15 16  2  0
 16 17  1  0
 17 18  2  0
  9  4  1  0
 18 13  1  0
M  END
>  <zinc_id>  (1) 
ZINC000000968305

>  <smiles>  (1) 
C[C@@H](Cc1ccccc1)N(C)Cc1ccccc1

$$$$
