
     RDKit          3D

 15 15  0  0  0  0  0  0  0  0999 V2000
    1.9074   -1.0554   -1.6492 C   0  0  0  0  0  0  0  0  0  0  0  0
    2.1732   -0.6903   -0.3089 C   0  0  2  0  0  0  0  0  0  0  0  0
    3.4070   -1.3936    0.1083 N   0  0  0  0  0  0  0  0  0  0  0  0
    1.1416   -1.1345    0.6637 C   0  0  0  0  0  0  0  0  0  0  0  0
   -0.2203   -0.6486    0.4684 C   0  0  0  0  0  0  0  0  0  0  0  0
   -1.0591   -1.3986   -0.3616 C   0  0  0  0  0  0  0  0  0  0  0  0
   -2.3548   -1.0478   -0.6090 C   0  0  0  0  0  0  0  0  0  0  0  0
   -2.8998    0.0778   -0.0425 C   0  0  0  0  0  0  0  0  0  0  0  0
   -4.2179    0.4626   -0.2749 O   0  0  0  0  0  0  0  0  0  0  0  0
   -2.0958    0.8379    0.7815 C   0  0  0  0  0  0  0  0  0  0  0  0
   -2.6655    1.9753    1.3468 O   0  0  0  0  0  0  0  0  0  0  0  0
   -0.7841    0.4758    1.0271 C   0  0  0  0  0  0  0  0  0  0  0  0
    2.4358    0.7527   -0.1402 C   0  0  0  0  0  0  0  0  0  0  0  0
    1.5964    1.6326   -0.4981 O   0  0  0  0  0  0  0  0  0  0  0  0
    3.6361    1.1539    0.4266 O   0  0  0  0  0  0  0  0  0  0  0  0
  2  1  1  6
  2  3  1  0
  2  4  1  0
  4  5  1  0
  5  6  2  0
  6  7  1  0
  7  8  2  0
  8  9  1  0
  8 10  1  0
 10 11  1  0
 10 12  2  0
  2 13  1  0
 13 14  2  0
 13 15  1  0
 12  5  1  0
M  END
>  <zinc_id>  (1) 
ZINC000000020255

>  <smiles>  (1) 
C[C@](N)(Cc1ccc(O)c(O)c1)C(=O)O

$$$$
