
     RDKit          3D

 27 29  0  0  0  0  0  0  0  0999 V2000
   -2.7499    0.1191   -4.1816 C   0  0  0  0  0  0  0  0  0  0  0  0
   -1.9525   -0.2508   -2.9774 C   0  0  0  0  0  0  0  0  0  0  0  0
   -2.6189    0.1392   -1.7071 C   0  0  0  0  0  0  0  0  0  0  0  0
   -3.7315    0.7064   -1.7529 O   0  0  0  0  0  0  0  0  0  0  0  0
   -2.0360   -0.1101   -0.4307 N   0  0  0  0  0  0  0  0  0  0  0  0
   -2.7147    0.2735    0.7428 C   0  0  0  0  0  0  0  0  0  0  0  0
   -3.8771   -0.3583    1.1527 C   0  0  0  0  0  0  0  0  0  0  0  0
   -4.5349    0.0334    2.3183 C   0  0  0  0  0  0  0  0  0  0  0  0
   -4.0286    1.0555    3.0679 C   0  0  0  0  0  0  0  0  0  0  0  0
   -2.8676    1.7067    2.6844 C   0  0  0  0  0  0  0  0  0  0  0  0
   -2.2241    1.3020    1.5179 C   0  0  0  0  0  0  0  0  0  0  0  0
   -0.7395   -0.7605   -0.4419 C   0  0  0  0  0  0  0  0  0  0  0  0
   -0.8539   -2.1045   -1.1147 C   0  0  0  0  0  0  0  0  0  0  0  0
   -1.7091   -2.9861   -0.5118 O   0  0  0  0  0  0  0  0  0  0  0  0
   -1.3432   -3.2970    0.8163 C   0  0  0  0  0  0  0  0  0  0  0  0
   -0.1402   -0.8471    0.9444 C   0  0  0  0  0  0  0  0  0  0  0  0
    1.3750   -0.7901    0.8743 C   0  0  0  0  0  0  0  0  0  0  0  0
    1.8401    0.4662    0.3268 N   0  0  0  0  0  0  0  0  0  0  0  0
    2.4313    1.3297    1.3321 C   0  0  0  0  0  0  0  0  0  0  0  0
    3.7297    0.7833    1.8593 C   0  0  0  0  0  0  0  0  0  0  0  0
    4.7110    0.6443    0.7239 C   0  0  0  0  0  0  0  0  0  0  0  0
    4.8965   -0.4522   -0.0697 C   0  0  0  0  0  0  0  0  0  0  0  0
    5.8202   -0.3690   -1.0293 C   0  0  0  0  0  0  0  0  0  0  0  0
    6.5138    0.7956   -1.1537 C   0  0  0  0  0  0  0  0  0  0  0  0
    5.8437    1.7525    0.0931 S   0  0  0  0  0  0  0  0  0  0  0  0
    0.8075    1.1179   -0.4201 C   0  0  0  0  0  0  0  0  0  0  0  0
    0.1526    0.1005   -1.3306 C   0  0  0  0  0  0  0  0  0  0  0  0
  1  2  1  0
  2  3  1  0
  3  4  2  0
  3  5  1  0
  5  6  1  0
  6  7  2  0
  7  8  1  0
  8  9  2  0
  9 10  1  0
 10 11  2  0
  5 12  1  0
 12 13  1  0
 13 14  1  0
 14 15  1  0
 12 16  1  0
 16 17  1  0
 17 18  1  0
 18 19  1  0
 19 20  1  0
 20 21  1  0
 21 22  2  0
 22 23  1  0
 23 24  2  0
 24 25  1  0
 18 26  1  0
 26 27  1  0
 11  6  1  0
 27 12  1  0
 25 21  1  0
M  END
>  <zinc_id>  (1) 
ZINC000000538386

>  <smiles>  (1) 
CCC(=O)N(c1ccccc1)C1(COC)CCN(CCc2cccs2)CC1

$$$$
