
     RDKit          3D

 25 27  0  0  0  0  0  0  0  0999 V2000
   -3.5340   -2.2062   -0.8446 C   0  0  0  0  0  0  0  0  0  0  0  0
   -3.9567   -1.2774    0.1078 N   0  0  0  0  0  0  0  0  0  0  0  0
   -3.3602   -1.2861    1.4255 C   0  0  0  0  0  0  0  0  0  0  0  0
   -1.9219   -0.8677    1.4284 C   0  0  0  0  0  0  0  0  0  0  0  0
   -1.1102   -1.7018    0.6387 O   0  0  0  0  0  0  0  0  0  0  0  0
    0.2456   -1.4634    0.5298 C   0  0  0  0  0  0  0  0  0  0  0  0
    0.8155   -0.4133    1.1880 C   0  0  0  0  0  0  0  0  0  0  0  0
    2.1491   -0.1649    1.0917 C   0  0  0  0  0  0  0  0  0  0  0  0
    2.9735   -0.9614    0.3281 C   0  0  0  0  0  0  0  0  0  0  0  0
    4.4103   -0.6226    0.2788 C   0  0  0  0  0  0  0  0  0  0  0  0
    4.6018    0.3350   -0.9613 C   0  0  1  0  0  0  0  0  0  0  0  0
    3.4491    1.7226   -0.3861 S   0  0  0  0  0  0  0  0  0  0  0  0
    4.5916    2.4992    0.7445 C   0  0  0  0  0  0  0  0  0  0  0  0
    4.3573    3.5845    1.3946 O   0  0  0  0  0  0  0  0  0  0  0  0
    5.7218    1.6666    0.7295 N   0  0  0  0  0  0  0  0  0  0  0  0
    5.8889    1.0224   -0.4762 C   0  0  0  0  0  0  0  0  0  0  0  0
    6.9185    0.9336   -1.1895 O   0  0  0  0  0  0  0  0  0  0  0  0
    2.4173   -2.0193   -0.3389 C   0  0  0  0  0  0  0  0  0  0  0  0
    1.0760   -2.2624   -0.2369 C   0  0  0  0  0  0  0  0  0  0  0  0
   -4.9716   -0.3367   -0.2359 C   0  0  0  0  0  0  0  0  0  0  0  0
   -5.4150    0.5995    0.7032 C   0  0  0  0  0  0  0  0  0  0  0  0
   -6.3987    1.5056    0.3615 C   0  0  0  0  0  0  0  0  0  0  0  0
   -6.9402    1.4844   -0.9043 C   0  0  0  0  0  0  0  0  0  0  0  0
   -6.4844    0.5529   -1.8059 C   0  0  0  0  0  0  0  0  0  0  0  0
   -5.5233   -0.3230   -1.4524 N   0  0  0  0  0  0  0  0  0  0  0  0
  1  2  1  0
  2  3  1  0
  3  4  1  0
  4  5  1  0
  5  6  1  0
  6  7  2  0
  7  8  1  0
  8  9  2  0
  9 10  1  0
 11 10  1  1
 11 12  1  0
 12 13  1  0
 13 14  2  0
 13 15  1  0
 15 16  1  0
 16 17  2  0
  9 18  1  0
 18 19  2  0
  2 20  1  0
 20 21  2  0
 21 22  1  0
 22 23  2  0
 23 24  1  0
 24 25  2  0
 19  6  1  0
 25 20  1  0
 16 11  1  0
M  END
>  <zinc_id>  (1) 
ZINC000000968330

>  <smiles>  (1) 
CN(CCOc1ccc(C[C@H]2SC(=O)NC2=O)cc1)c1ccccn1

$$$$
