
     RDKit          3D

 17 18  0  0  0  0  0  0  0  0999 V2000
   -0.1962    0.4759   -1.9003 C   0  0  0  0  0  0  0  0  0  0  0  0
   -0.4308   -0.3579   -0.6354 C   0  0  0  0  0  0  0  0  0  0  0  0
   -0.0053   -1.7962   -0.8659 C   0  0  0  0  0  0  0  0  0  0  0  0
    0.4437    0.2372    0.4109 C   0  0  0  0  0  0  0  0  0  0  0  0
   -0.0984    0.6921    1.4381 O   0  0  0  0  0  0  0  0  0  0  0  0
    1.8902    0.3016    0.2703 C   0  0  0  0  0  0  0  0  0  0  0  0
    2.6454    0.8647    1.2740 C   0  0  0  0  0  0  0  0  0  0  0  0
    4.0286    0.8971    1.0801 C   0  0  0  0  0  0  0  0  0  0  0  0
    4.5312    0.3736   -0.0793 C   0  0  0  0  0  0  0  0  0  0  0  0
    3.8051   -0.1757   -1.0605 N   0  0  0  0  0  0  0  0  0  0  0  0
    2.4597   -0.2098   -0.8770 C   0  0  0  0  0  0  0  0  0  0  0  0
   -1.8530   -0.2860   -0.2218 C   0  0  0  0  0  0  0  0  0  0  0  0
   -2.7946    0.1308   -1.1417 C   0  0  0  0  0  0  0  0  0  0  0  0
   -4.1157    0.1848   -0.7165 C   0  0  0  0  0  0  0  0  0  0  0  0
   -4.5013   -0.1543    0.5550 C   0  0  0  0  0  0  0  0  0  0  0  0
   -3.5543   -0.5597    1.4353 N   0  0  0  0  0  0  0  0  0  0  0  0
   -2.2544   -0.6183    1.0346 C   0  0  0  0  0  0  0  0  0  0  0  0
  1  2  1  0
  2  3  1  0
  2  4  1  0
  4  5  2  0
  4  6  1  0
  6  7  2  0
  7  8  1  0
  8  9  2  0
  9 10  1  0
 10 11  2  0
  2 12  1  0
 12 13  2  0
 13 14  1  0
 14 15  2  0
 15 16  1  0
 16 17  2  0
 11  6  1  0
 17 12  1  0
M  END
>  <zinc_id>  (1) 
ZINC000000001728

>  <smiles>  (1) 
CC(C)(C(=O)c1cccnc1)c1cccnc1

$$$$
