
     RDKit          3D

  4  3  0  0  0  0  0  0  0  0999 V2000
   -1.3012   -0.7490   -0.1807 N   0  0  0  0  0  0  0  0  0  0  0  0
   -0.8284    0.5277    0.3520 C   0  0  0  0  0  0  0  0  0  0  0  0
    0.5099    0.7976   -0.3067 C   0  0  0  0  0  0  0  0  0  0  0  0
    1.6197   -0.5763    0.1354 S   0  0  0  0  0  0  0  0  0  0  0  0
  1  2  1  0
  2  3  1  0
  3  4  1  0
M  END
>  <zinc_id>  (1) 
ZINC000008034121

>  <smiles>  (1) 
NCCS

$$$$
