
     RDKit          3D

  9  8  0  0  0  0  0  0  0  0999 V2000
    3.3635   -0.2983    0.5089 C   0  0  0  0  0  0  0  0  0  0  0  0
    2.8327   -0.4466   -0.5015 S   0  0  0  0  0  0  0  0  0  0  0  0
    1.0990   -0.5964   -0.9247 C   0  0  0  0  0  0  0  0  0  0  0  0
    0.3925    0.7321   -0.6323 C   0  0  0  0  0  0  0  0  0  0  0  0
   -1.1394    0.3679   -1.0839 C   0  0  2  0  0  0  0  0  0  0  0  0
   -1.6929    1.7698   -0.7343 N   0  0  0  0  0  0  0  0  0  0  0  0
   -1.5122   -0.3437    0.2510 C   0  0  0  0  0  0  0  0  0  0  0  0
   -1.2087   -1.5421    0.3418 O   0  0  0  0  0  0  0  0  0  0  0  0
   -2.1346    0.3572    1.2284 O   0  0  0  0  0  0  0  0  0  0  0  0
  1  2  1  0
  2  3  1  0
  3  4  1  0
  4  5  1  0
  5  6  1  1
  5  7  1  0
  7  8  2  0
  7  9  1  0
M  END
>  <zinc_id>  (1) 
ZINC000001532529

>  <smiles>  (1) 
CSCC[C@H](N)C(=O)O

$$$$
