
     RDKit          3D

 17 17  0  0  0  0  0  0  0  0999 V2000
    3.6230    0.0504    0.8997 C   0  0  0  0  0  0  0  0  0  0  0  0
    3.5393    0.7179    0.2300 C   0  0  0  0  0  0  0  0  0  0  0  0
    4.2303    0.4862   -1.0760 C   0  0  0  0  0  0  0  0  0  0  0  0
    3.9511    2.0847    0.8396 C   0  0  0  0  0  0  0  0  0  0  0  0
    2.0688    0.9154   -0.1237 N   0  0  0  0  0  0  0  0  0  0  0  0
    1.6987   -0.5147   -0.3897 C   0  0  0  0  0  0  0  0  0  0  0  0
    0.9579   -0.8702    1.1409 C   0  0  2  0  0  0  0  0  0  0  0  0
    1.0973   -2.4153    0.7987 O   0  0  0  0  0  0  0  0  0  0  0  0
   -0.5356   -0.8091    0.4514 C   0  0  0  0  0  0  0  0  0  0  0  0
   -0.7654   -1.5146   -0.6046 C   0  0  0  0  0  0  0  0  0  0  0  0
   -1.8684   -1.4304   -1.4763 C   0  0  0  0  0  0  0  0  0  0  0  0
   -2.6929   -0.4878   -1.0079 C   0  0  0  0  0  0  0  0  0  0  0  0
   -3.9034   -0.2435   -1.8165 O   0  0  0  0  0  0  0  0  0  0  0  0
   -2.5900    0.2921    0.0903 C   0  0  0  0  0  0  0  0  0  0  0  0
   -3.7881    1.1209    0.3259 C   0  0  0  0  0  0  0  0  0  0  0  0
   -3.5829    2.4772    0.5866 O   0  0  0  0  0  0  0  0  0  0  0  0
   -1.4399    0.1409    0.8848 C   0  0  0  0  0  0  0  0  0  0  0  0
  1  2  1  0
  2  3  1  0
  2  4  1  0
  2  5  1  0
  5  6  1  0
  6  7  1  0
  7  8  1  6
  7  9  1  0
  9 10  2  0
 10 11  1  0
 11 12  2  0
 12 13  1  0
 12 14  1  0
 14 15  1  0
 15 16  1  0
 14 17  2  0
 17  9  1  0
M  END
>  <zinc_id>  (1) 
ZINC000000007601

>  <smiles>  (1) 
CC(C)(C)NC[C@H](O)c1ccc(O)c(CO)c1

$$$$
