
     RDKit          3D

  5  4  0  0  0  0  0  0  0  0999 V2000
   -1.7586   -0.7329    0.0669 C   0  0  0  0  0  0  0  0  0  0  0  0
   -0.4727    0.0415    0.0501 C   0  0  0  0  0  0  0  0  0  0  0  0
   -0.4723    1.3035    0.2203 O   0  0  0  0  0  0  0  0  0  0  0  0
    0.7626   -0.6322   -0.1571 N   0  0  0  0  0  0  0  0  0  0  0  0
    1.9409    0.0201   -0.1802 O   0  0  0  0  0  0  0  0  0  0  0  0
  1  2  1  0
  2  3  2  0
  2  4  1  0
  4  5  1  0
M  END
>  <zinc_id>  (1) 
ZINC000004658603

>  <smiles>  (1) 
CC(=O)NO

$$$$
