
     RDKit          3D

 10  9  0  0  0  0  0  0  0  0999 V2000
   -3.9030    0.5020   -0.0254 C   0  0  0  0  0  0  0  0  0  0  0  0
   -2.4857    0.5652   -0.0386 O   0  0  0  0  0  0  0  0  0  0  0  0
   -1.7965   -0.6206   -0.2671 C   0  0  0  0  0  0  0  0  0  0  0  0
   -2.4338   -1.6913   -0.4515 O   0  0  0  0  0  0  0  0  0  0  0  0
   -0.3398   -0.6644   -0.3004 C   0  0  0  0  0  0  0  0  0  0  0  0
    0.3176    0.4656   -0.1056 C   0  0  0  0  0  0  0  0  0  0  0  0
    1.7562    0.5806   -0.1096 C   0  0  0  0  0  0  0  0  0  0  0  0
    2.2555    1.7163    0.0890 O   0  0  0  0  0  0  0  0  0  0  0  0
    2.6005   -0.5002   -0.3217 O   0  0  0  0  0  0  0  0  0  0  0  0
    4.0290   -0.3534   -0.3198 C   0  0  0  0  0  0  0  0  0  0  0  0
  1  2  1  0
  2  3  1  0
  3  4  2  0
  3  5  1  0
  5  6  2  0
  6  7  1  0
  7  8  2  0
  7  9  1  0
  9 10  1  0
M  END
>  <zinc_id>  (1) 
ZINC000003843378

>  <smiles>  (1) 
COC(=O)/C=C/C(=O)OC

$$$$
