
     RDKit          3D

 24 27  0  0  0  0  0  0  0  0999 V2000
    4.8294    2.3111    2.6321 F   0  0  0  0  0  0  0  0  0  0  0  0
    4.1569    1.5224    2.1403 C   0  0  0  0  0  0  0  0  0  0  0  0
    3.2679    1.8425    1.1141 C   0  0  0  0  0  0  0  0  0  0  0  0
    2.4447    0.9027    0.5051 C   0  0  0  0  0  0  0  0  0  0  0  0
    2.4797   -0.3787    0.8956 C   0  0  0  0  0  0  0  0  0  0  0  0
    1.5622   -1.4851    0.2546 C   0  0  2  0  0  0  0  0  0  0  0  0
    2.7737   -2.5238   -0.0228 C   0  0  0  0  0  0  0  0  0  0  0  0
    3.6812   -1.9158   -1.0261 C   0  0  0  0  0  0  0  0  0  0  0  0
    3.1173   -2.1378   -2.3462 N   0  0  0  0  0  0  0  0  0  0  0  0
    1.6735   -2.1288   -2.1654 C   0  0  0  0  0  0  0  0  0  0  0  0
    1.5077   -0.7759   -1.2897 C   0  0  1  0  0  0  0  0  0  0  0  0
   -0.0892   -0.7360   -1.4821 C   0  0  0  0  0  0  0  0  0  0  0  0
   -0.6694    0.0235   -0.4870 O   0  0  0  0  0  0  0  0  0  0  0  0
   -2.0379    0.1597   -0.5062 C   0  0  0  0  0  0  0  0  0  0  0  0
   -2.8432   -0.4235   -1.4658 C   0  0  0  0  0  0  0  0  0  0  0  0
   -4.2092   -0.2986   -1.5008 C   0  0  0  0  0  0  0  0  0  0  0  0
   -4.8467    0.4536   -0.5250 C   0  0  0  0  0  0  0  0  0  0  0  0
   -4.0905    1.0542    0.4518 C   0  0  0  0  0  0  0  0  0  0  0  0
   -2.7237    0.8973    0.4412 C   0  0  0  0  0  0  0  0  0  0  0  0
   -4.9977    1.7221    1.2649 O   0  0  0  0  0  0  0  0  0  0  0  0
   -6.2534    1.7590    0.6187 C   0  0  0  0  0  0  0  0  0  0  0  0
   -6.2178    0.7363   -0.3351 O   0  0  0  0  0  0  0  0  0  0  0  0
    3.3362   -0.7704    1.9069 C   0  0  0  0  0  0  0  0  0  0  0  0
    4.1482    0.1898    2.4986 C   0  0  0  0  0  0  0  0  0  0  0  0
  1  2  1  0
  2  3  2  0
  3  4  1  0
  4  5  2  0
  6  5  1  1
  6  7  1  0
  7  8  1  0
  8  9  1  0
  9 10  1  0
 10 11  1  0
 11 12  1  6
 12 13  1  0
 13 14  1  0
 14 15  2  0
 15 16  1  0
 16 17  2  0
 17 18  1  0
 18 19  2  0
 18 20  1  0
 20 21  1  0
 21 22  1  0
  5 23  1  0
 23 24  2  0
 24  2  1  0
 11  6  1  0
 19 14  1  0
 22 17  1  0
M  END
>  <zinc_id>  (1) 
ZINC000000527386

>  <smiles>  (1) 
Fc1ccc([C@@H]2CCNC[C@H]2COc2ccc3c(c2)OCO3)cc1

$$$$
