
     RDKit          2D

 13 14  0  0  0  0  0  0  0  0999 V2000
    2.0282   -1.6099    0.0000 O   0  0  0  0  0  0  0  0  0  0  0  0
    2.8793   -0.3747    0.0000 N   0  0  0  0  0  0  0  0  0  0  0  0
    4.3745   -0.4942    0.0000 O   0  0  0  0  0  0  0  0  0  0  0  0
    2.2352    0.9799    0.0000 O   0  0  0  0  0  0  0  0  0  0  0  0
    0.7399    1.0994    0.0000 C   0  0  0  0  0  0  0  0  0  0  0  0
   -0.0423    2.3794    0.0000 C   0  0  0  0  0  0  0  0  0  0  0  0
   -1.5012    2.0310    0.0000 O   0  0  0  0  0  0  0  0  0  0  0  0
   -1.6208    0.5357    0.0000 C   0  0  0  0  0  0  0  0  0  0  0  0
   -2.5963   -0.6037    0.0000 C   0  0  0  0  0  0  0  0  0  0  0  0
   -4.0915   -0.4842    0.0000 O   0  0  0  0  0  0  0  0  0  0  0  0
   -1.8141   -1.8836    0.0000 C   0  0  0  0  0  0  0  0  0  0  0  0
   -0.3551   -1.5352    0.0000 O   0  0  0  0  0  0  0  0  0  0  0  0
   -0.2356   -0.0400    0.0000 C   0  0  0  0  0  0  0  0  0  0  0  0
  1  2  2  0
  2  3  1  0
  2  4  1  0
  5  4  1  1
  5  6  1  0
  6  7  1  0
  8  7  1  1
  8  9  1  0
  9 10  1  6
  9 11  1  0
 11 12  1  0
 13 12  1  1
 13  5  1  0
 13  8  1  0
M  CHG  2   2   1   3  -1
M  END
>  <zinc_id>  (1) 
ZINC000001849548

>  <smiles>  (1) 
O=[N+]([O-])O[C@@H]1CO[C@@H]2[C@@H](O)CO[C@H]12

$$$$
