
     RDKit          3D

 39 41  0  0  0  0  0  0  0  0999 V2000
   -2.2397   -8.3632   -0.9649 C   0  0  0  0  0  0  0  0  0  0  0  0
   -1.9552   -7.4526   -1.6784 C   0  0  0  0  0  0  0  0  0  0  0  0
   -1.8274   -6.1329   -1.0442 C   0  0  0  0  0  0  0  0  0  0  0  0
   -2.0216   -6.0506    0.1929 O   0  0  0  0  0  0  0  0  0  0  0  0
   -1.5146   -4.9578   -1.6547 O   0  0  0  0  0  0  0  0  0  0  0  0
   -1.4533   -3.6986   -0.6823 C   0  0  1  0  0  0  0  0  0  0  0  0
   -1.1104   -2.8054   -1.8386 O   0  0  0  0  0  0  0  0  0  0  0  0
   -0.7754   -1.2638   -1.3735 P   0  0  1  0  0  0  0  0  0  0  0  0
    0.4638   -0.7448   -2.1688 O   0  0  0  0  0  0  0  0  0  0  0  0
   -2.1128   -0.1189   -1.8073 C   0  0  0  0  0  0  0  0  0  0  0  0
   -1.9480    1.2625   -1.2280 C   0  0  0  0  0  0  0  0  0  0  0  0
   -1.9130    1.2631    0.2601 C   0  0  0  0  0  0  0  0  0  0  0  0
   -1.7513    2.6230    0.8839 C   0  0  0  0  0  0  0  0  0  0  0  0
   -2.9009    3.4559    0.4515 C   0  0  0  0  0  0  0  0  0  0  0  0
   -2.8378    4.2496   -0.6827 C   0  0  0  0  0  0  0  0  0  0  0  0
   -3.9326    4.9989   -1.0375 C   0  0  0  0  0  0  0  0  0  0  0  0
   -5.1172    5.0137   -0.3241 C   0  0  0  0  0  0  0  0  0  0  0  0
   -5.1782    4.2148    0.8153 C   0  0  0  0  0  0  0  0  0  0  0  0
   -4.0732    3.4644    1.1662 C   0  0  0  0  0  0  0  0  0  0  0  0
   -0.3987   -0.9597    0.3364 C   0  0  0  0  0  0  0  0  0  0  0  0
    1.0236   -1.1350    0.6992 C   0  0  0  0  0  0  0  0  0  0  0  0
    1.2485   -2.2704    1.1912 O   0  0  0  0  0  0  0  0  0  0  0  0
    2.0079   -0.1276    0.5065 N   0  0  0  0  0  0  0  0  0  0  0  0
    1.9667    1.1705   -0.0234 C   0  0  0  0  0  0  0  0  0  0  0  0
    2.8909    1.8649    1.1118 C   0  0  2  0  0  0  0  0  0  0  0  0
    3.2417    3.1785    0.2290 C   0  0  0  0  0  0  0  0  0  0  0  0
    4.1275    3.9376    1.1843 C   0  0  0  0  0  0  0  0  0  0  0  0
    5.3180    4.5617    0.5345 C   0  0  0  0  0  0  0  0  0  0  0  0
    6.0866    3.6003   -0.3309 C   0  0  0  0  0  0  0  0  0  0  0  0
    5.1876    3.1080   -1.4053 C   0  0  0  0  0  0  0  0  0  0  0  0
    3.7940    2.8195   -1.0628 C   0  0  0  0  0  0  0  0  0  0  0  0
    4.1303    0.9641    0.5942 C   0  0  0  0  0  0  0  0  0  0  0  0
    3.4488   -0.4819    0.9625 C   0  0  1  0  0  0  0  0  0  0  0  0
    3.3016   -0.1350    2.5123 C   0  0  0  0  0  0  0  0  0  0  0  0
    2.3043    0.2818    3.0256 O   0  0  0  0  0  0  0  0  0  0  0  0
    4.4480   -0.3518    3.2754 O   0  0  0  0  0  0  0  0  0  0  0  0
   -3.0913   -3.5360   -0.7260 C   0  0  0  0  0  0  0  0  0  0  0  0
   -3.3015   -2.3628    0.1943 C   0  0  0  0  0  0  0  0  0  0  0  0
   -3.5356   -3.0839   -2.0542 C   0  0  0  0  0  0  0  0  0  0  0  0
  1  2  1  0
  2  3  1  0
  3  4  2  0
  3  5  1  0
  6  5  1  6
  6  7  1  0
  7  8  1  0
  8  9  2  0
  8 10  1  6
 10 11  1  0
 11 12  1  0
 12 13  1  0
 13 14  1  0
 14 15  2  0
 15 16  1  0
 16 17  2  0
 17 18  1  0
 18 19  2  0
  8 20  1  0
 20 21  1  0
 21 22  2  0
 21 23  1  0
 23 24  1  0
 24 25  1  0
 25 26  1  6
 26 27  1  0
 27 28  1  0
 28 29  1  0
 29 30  1  0
 30 31  1  0
 25 32  1  0
 32 33  1  0
 33 34  1  1
 34 35  2  0
 34 36  1  0
  6 37  1  0
 37 38  1  0
 37 39  1  0
 19 14  1  0
 33 23  1  0
 31 26  1  0
M  END
>  <zinc_id>  (1) 
ZINC000003920355

>  <smiles>  (1) 
CCC(=O)O[C@@H](O[P@@](=O)(CCCCc1ccccc1)CC(=O)N1C[C@H](C2CCCCC2)C[C@H]1C(=O)O)C(C)C

$$$$
