
     RDKit          3D

 11 12  0  0  0  0  0  0  0  0999 V2000
   -2.1595    1.5032    0.5811 C   0  0  0  0  0  0  0  0  0  0  0  0
   -1.0880    0.4849    0.2622 C   0  0  2  0  0  0  0  0  0  0  0  0
   -1.5648   -0.3593   -0.9095 C   0  0  0  0  0  0  0  0  0  0  0  0
   -0.3955   -1.1780   -1.4243 C   0  0  0  0  0  0  0  0  0  0  0  0
    0.6949   -1.1019   -0.3883 C   0  0  2  0  0  0  0  0  0  0  0  0
    0.1395   -1.5075    0.9786 C   0  0  0  0  0  0  0  0  0  0  0  0
   -0.8674   -0.4584    1.4252 C   0  0  0  0  0  0  0  0  0  0  0  0
    1.1743    0.3367   -0.2090 C   0  0  0  0  0  0  0  0  0  0  0  0
    2.0146    0.7353   -1.3826 C   0  0  0  0  0  0  0  0  0  0  0  0
    1.9780    0.3690    1.0879 C   0  0  0  0  0  0  0  0  0  0  0  0
    0.0738    1.1760   -0.0213 O   0  0  0  0  0  0  0  0  0  0  0  0
  2  1  1  1
  2  3  1  0
  3  4  1  0
  5  4  1  6
  5  6  1  0
  6  7  1  0
  5  8  1  0
  8  9  1  0
  8 10  1  0
  8 11  1  0
  7  2  1  0
 11  2  1  0
M  END
>  <zinc_id>  (1) 
ZINC000000967566

>  <smiles>  (1) 
CC12CCC(CC1)C(C)(C)O2

$$$$
