
     RDKit          3D

 27 29  0  0  0  0  0  0  0  0999 V2000
    5.5738   -2.9745   -1.0182 N   0  0  0  0  0  0  0  0  0  0  0  0
    4.2947   -2.6069   -0.5625 C   0  0  0  0  0  0  0  0  0  0  0  0
    3.7671   -1.4188   -0.6420 N   0  0  0  0  0  0  0  0  0  0  0  0
    2.5699   -1.1987   -0.1837 C   0  0  0  0  0  0  0  0  0  0  0  0
    1.9240    0.1312   -0.2490 C   0  0  0  0  0  0  0  0  0  0  0  0
    2.5182    1.1892   -0.7747 C   0  0  0  0  0  0  0  0  0  0  0  0
    1.8553    2.5308   -0.8354 C   0  0  0  0  0  0  0  0  0  0  0  0
    2.7242    3.4535   -0.0713 C   0  0  0  0  0  0  0  0  0  0  0  0
    3.7450    3.9066   -0.6267 O   0  0  0  0  0  0  0  0  0  0  0  0
    2.4243    3.8146    1.2280 O   0  0  0  0  0  0  0  0  0  0  0  0
    0.5692    0.3445    0.2680 C   0  0  0  0  0  0  0  0  0  0  0  0
    0.0126   -0.6443    0.7640 O   0  0  0  0  0  0  0  0  0  0  0  0
   -0.0845    1.5177    0.2349 N   0  0  0  0  0  0  0  0  0  0  0  0
   -1.4401    1.8491    0.7200 C   0  0  2  0  0  0  0  0  0  0  0  0
   -2.0168    0.6361    1.4605 C   0  0  0  0  0  0  0  0  0  0  0  0
   -1.8336    0.2523    2.5867 O   0  0  0  0  0  0  0  0  0  0  0  0
   -2.7768    0.2136    0.3652 N   0  0  0  0  0  0  0  0  0  0  0  0
   -3.6312   -0.7276   -0.2231 C   0  0  0  0  0  0  0  0  0  0  0  0
   -4.7171   -1.2454    0.6642 C   0  0  0  0  0  0  0  0  0  0  0  0
   -4.8605   -0.8677    1.8264 O   0  0  0  0  0  0  0  0  0  0  0  0
   -5.5982   -2.1908    0.1534 O   0  0  0  0  0  0  0  0  0  0  0  0
   -3.5778   -1.2116   -1.4494 C   0  0  0  0  0  0  0  0  0  0  0  0
   -2.5573   -0.8038   -2.4098 C   0  0  0  0  0  0  0  0  0  0  0  0
   -1.4296    0.4278   -1.7673 S   0  0  0  0  0  0  0  0  0  0  0  0
   -2.4455    1.4182   -0.5348 C   0  0  2  0  0  0  0  0  0  0  0  0
    1.9159   -2.2734    0.3748 C   0  0  0  0  0  0  0  0  0  0  0  0
    3.0747   -3.5216    0.1981 S   0  0  0  0  0  0  0  0  0  0  0  0
  1  2  1  0
  2  3  2  0
  3  4  1  0
  4  5  1  0
  5  6  2  0
  6  7  1  0
  7  8  1  0
  8  9  2  0
  8 10  1  0
  5 11  1  0
 11 12  2  0
 11 13  1  0
 14 13  1  6
 14 15  1  0
 15 16  2  0
 15 17  1  0
 17 18  1  0
 18 19  1  0
 19 20  2  0
 19 21  1  0
 18 22  2  0
 22 23  1  0
 23 24  1  0
 25 24  1  6
  4 26  2  0
 26 27  1  0
 27  2  1  0
 25 14  1  0
 25 17  1  0
M  END
>  <zinc_id>  (1) 
ZINC000003871967

>  <smiles>  (1) 
Nc1nc(/C(=C/CC(=O)O)C(=O)N[C@@H]2C(=O)N3C(C(=O)O)=CCS[C@H]23)cs1

$$$$
