
     RDKit          3D

 33 34  0  0  0  0  0  0  0  0999 V2000
    8.3520    1.6279    1.3720 C   0  0  0  0  0  0  0  0  0  0  0  0
    7.4715    1.6360    0.4613 O   0  0  0  0  0  0  0  0  0  0  0  0
    6.4878    0.6630    0.2946 C   0  0  0  0  0  0  0  0  0  0  0  0
    6.3760   -0.4119    1.1275 C   0  0  0  0  0  0  0  0  0  0  0  0
    5.4182   -1.3624    0.9767 C   0  0  0  0  0  0  0  0  0  0  0  0
    4.4974   -1.2370   -0.0941 C   0  0  0  0  0  0  0  0  0  0  0  0
    3.4714   -2.2727   -0.2948 C   0  0  0  0  0  0  0  0  0  0  0  0
    2.2405   -2.2077    0.4598 C   0  0  0  0  0  0  0  0  0  0  0  0
    1.3921   -1.0668    0.3349 N   0  0  0  0  0  0  0  0  0  0  0  0
    2.0546    0.0636    0.9650 C   0  0  0  0  0  0  0  0  0  0  0  0
    1.0178   -0.7952   -0.9908 C   0  0  0  0  0  0  0  0  0  0  0  0
    0.0261    0.1884   -1.3319 C   0  0  0  0  0  0  0  0  0  0  0  0
   -1.3454    0.1804   -1.0000 C   0  0  0  0  0  0  0  0  0  0  0  0
   -1.9496    0.1750    0.3241 C   0  0  1  0  0  0  0  0  0  0  0  0
   -1.5073    1.3879    1.0553 C   0  0  0  0  0  0  0  0  0  0  0  0
   -1.1577    2.3427    1.6071 N   0  0  0  0  0  0  0  0  0  0  0  0
   -3.4690    0.3340    0.2423 C   0  0  0  0  0  0  0  0  0  0  0  0
   -4.0385    1.5212   -0.1420 C   0  0  0  0  0  0  0  0  0  0  0  0
   -5.4193    1.6735   -0.2552 C   0  0  0  0  0  0  0  0  0  0  0  0
   -6.2402    0.6095    0.0259 C   0  0  0  0  0  0  0  0  0  0  0  0
   -7.6338    0.7531   -0.0861 O   0  0  0  0  0  0  0  0  0  0  0  0
   -8.2130    1.9763   -0.4823 C   0  0  0  0  0  0  0  0  0  0  0  0
   -5.6897   -0.5819    0.4117 C   0  0  0  0  0  0  0  0  0  0  0  0
   -6.4927   -1.6783    0.7097 O   0  0  0  0  0  0  0  0  0  0  0  0
   -5.9692   -2.9215    1.1024 C   0  0  0  0  0  0  0  0  0  0  0  0
   -4.3062   -0.7259    0.5213 C   0  0  0  0  0  0  0  0  0  0  0  0
   -1.6473   -1.0698    1.0935 C   0  0  0  0  0  0  0  0  0  0  0  0
   -2.2639   -1.0461    2.4808 C   0  0  0  0  0  0  0  0  0  0  0  0
   -2.1302   -2.2954    0.3268 C   0  0  0  0  0  0  0  0  0  0  0  0
    4.5829   -0.1653   -0.9513 C   0  0  0  0  0  0  0  0  0  0  0  0
    5.5826    0.7830   -0.7541 C   0  0  0  0  0  0  0  0  0  0  0  0
    5.7004    1.8753   -1.6007 O   0  0  0  0  0  0  0  0  0  0  0  0
    4.8016    2.0471   -2.6881 C   0  0  0  0  0  0  0  0  0  0  0  0
  1  2  1  0
  2  3  1  0
  3  4  2  0
  4  5  1  0
  5  6  2  0
  6  7  1  0
  7  8  1  0
  8  9  1  0
  9 10  1  0
  9 11  1  0
 11 12  1  0
 12 13  1  0
 14 13  1  6
 14 15  1  0
 15 16  3  0
 14 17  1  0
 17 18  2  0
 18 19  1  0
 19 20  2  0
 20 21  1  0
 21 22  1  0
 20 23  1  0
 23 24  1  0
 24 25  1  0
 23 26  2  0
 14 27  1  0
 27 28  1  0
 27 29  1  0
  6 30  1  0
 30 31  2  0
 31 32  1  0
 32 33  1  0
 31  3  1  0
 26 17  1  0
M  END
>  <zinc_id>  (1) 
ZINC000003871832

>  <smiles>  (1) 
COc1ccc(CCN(C)CCC[C@@](C#N)(c2ccc(OC)c(OC)c2)C(C)C)cc1OC

$$$$
