
     RDKit          3D

 34 37  0  0  0  0  0  0  0  0999 V2000
   -4.8307    3.2205    1.7047 C   0  0  0  0  0  0  0  0  0  0  0  0
   -4.3035    2.5626    2.0485 C   0  0  0  0  0  0  0  0  0  0  0  0
   -3.6725    1.5467    1.1988 C   0  0  0  0  0  0  0  0  0  0  0  0
   -3.9010    1.6369   -0.0245 O   0  0  0  0  0  0  0  0  0  0  0  0
   -2.8729    0.5162    1.5380 O   0  0  0  0  0  0  0  0  0  0  0  0
   -2.3421   -0.4110    0.6156 C   0  0  2  0  0  0  0  0  0  0  0  0
   -3.4598   -1.1716   -0.0012 C   0  0  0  0  0  0  0  0  0  0  0  0
   -4.6206   -0.9816    0.3223 O   0  0  0  0  0  0  0  0  0  0  0  0
   -3.3794   -2.4422   -1.2551 S   0  0  0  0  0  0  0  0  0  0  0  0
   -4.9694   -3.1055   -1.7237 C   0  0  0  0  0  0  0  0  0  0  0  0
   -5.7812   -2.1809   -2.3618 F   0  0  0  0  0  0  0  0  0  0  0  0
   -1.8397   -1.6716    1.5194 C   0  0  2  0  0  0  0  0  0  0  0  0
   -1.0458   -0.7844    2.6058 C   0  0  0  0  0  0  0  0  0  0  0  0
   -0.6782   -2.1216    0.4597 C   0  0  0  0  0  0  0  0  0  0  0  0
    0.0256   -0.7108    0.5398 C   0  0  1  0  0  0  0  0  0  0  0  0
    0.9490   -0.6051   -0.8502 C   0  0  2  0  0  0  0  0  0  0  0  0
    2.0238   -1.7740   -0.6485 C   0  0  0  0  0  0  0  0  0  0  0  0
    2.9394   -1.2099   -1.9435 C   0  0  2  0  0  0  0  0  0  0  0  0
    3.8964   -2.3565   -1.8571 F   0  0  0  0  0  0  0  0  0  0  0  0
    3.7444   -0.2083   -0.9360 C   0  0  0  0  0  0  0  0  0  0  0  0
    4.8514   -0.4752   -0.4526 C   0  0  0  0  0  0  0  0  0  0  0  0
    5.5287    0.4402    0.4446 C   0  0  0  0  0  0  0  0  0  0  0  0
    6.6558    0.1142    0.9053 O   0  0  0  0  0  0  0  0  0  0  0  0
    4.8681    1.6906    0.7661 C   0  0  0  0  0  0  0  0  0  0  0  0
    3.7186    1.8966    0.2184 C   0  0  0  0  0  0  0  0  0  0  0  0
    2.9584    1.0579   -0.6981 C   0  0  1  0  0  0  0  0  0  0  0  0
    3.0596    1.8916   -1.9589 C   0  0  0  0  0  0  0  0  0  0  0  0
    1.7731    0.5890   -0.2154 C   0  0  2  0  0  0  0  0  0  0  0  0
    2.2440    0.0038    0.9606 F   0  0  0  0  0  0  0  0  0  0  0  0
    0.7076    1.6215    0.4334 C   0  0  1  0  0  0  0  0  0  0  0  0
    1.0760    2.7913   -0.4818 O   0  0  0  0  0  0  0  0  0  0  0  0
   -0.6492    1.2855   -0.4303 C   0  0  0  0  0  0  0  0  0  0  0  0
   -1.2289    0.0055   -0.1831 C   0  0  2  0  0  0  0  0  0  0  0  0
   -1.4451   -0.6603   -1.5332 C   0  0  0  0  0  0  0  0  0  0  0  0
  1  2  1  0
  2  3  1  0
  3  4  2  0
  3  5  1  0
  6  5  1  1
  6  7  1  0
  7  8  2  0
  7  9  1  0
  9 10  1  0
 10 11  1  0
  6 12  1  0
 12 13  1  1
 12 14  1  0
 15 14  1  6
 15 16  1  0
 16 17  1  1
 17 18  1  0
 18 19  1  1
 18 20  1  0
 20 21  2  0
 21 22  1  0
 22 23  2  0
 22 24  1  0
 24 25  2  0
 25 26  1  0
 26 27  1  6
 26 28  1  0
 28 29  1  1
 28 30  1  0
 30 31  1  6
 30 32  1  0
 32 33  1  0
 33 34  1  6
 33  6  1  0
 33 15  1  0
 28 16  1  0
 26 20  1  0
M  END
>  <zinc_id>  (1) 
ZINC000003920027

>  <smiles>  (1) 
CCC(=O)O[C@]1(C(=O)SCF)[C@H](C)C[C@H]2[C@@H]3C[C@H](F)C4=CC(=O)C=C[C@]4(C)[C@@]3(F)[C@@H](O)C[C@@]21C

$$$$
