
     RDKit          3D

 20 20  0  0  0  0  0  0  0  0999 V2000
   -7.1657    0.9737    0.5742 C   0  0  0  0  0  0  0  0  0  0  0  0
   -5.9850    0.6310    0.0971 C   0  0  0  0  0  0  0  0  0  0  0  0
   -5.7020   -0.8219   -0.0354 C   0  0  0  0  0  0  0  0  0  0  0  0
   -4.4268   -1.2858   -0.5518 C   0  0  0  0  0  0  0  0  0  0  0  0
   -3.1866   -0.8206    0.3670 C   0  0  2  0  0  0  0  0  0  0  0  0
   -3.4251    0.7742    0.1764 C   0  0  0  0  0  0  0  0  0  0  0  0
   -2.2897    1.3500    1.0164 C   0  0  0  0  0  0  0  0  0  0  0  0
   -2.0832   -0.9644   -0.8310 C   0  0  0  0  0  0  0  0  0  0  0  0
   -0.8421   -0.5990   -0.2733 O   0  0  0  0  0  0  0  0  0  0  0  0
    0.2410   -0.6610   -1.1633 C   0  0  0  0  0  0  0  0  0  0  0  0
    0.0844   -1.0184   -2.3589 O   0  0  0  0  0  0  0  0  0  0  0  0
    1.5822   -0.3121   -0.7270 C   0  0  0  0  0  0  0  0  0  0  0  0
    2.6188   -0.3842   -1.6251 C   0  0  0  0  0  0  0  0  0  0  0  0
    3.9078   -0.0646   -1.2626 C   0  0  0  0  0  0  0  0  0  0  0  0
    4.1311    0.3372    0.0527 C   0  0  0  0  0  0  0  0  0  0  0  0
    5.4265    0.6712    0.4634 N   0  0  0  0  0  0  0  0  0  0  0  0
    6.5410    0.6088   -0.4478 C   0  0  0  0  0  0  0  0  0  0  0  0
    5.6942    1.0928    1.8231 C   0  0  0  0  0  0  0  0  0  0  0  0
    3.0830    0.4065    0.9477 C   0  0  0  0  0  0  0  0  0  0  0  0
    1.7963    0.0866    0.5826 C   0  0  0  0  0  0  0  0  0  0  0  0
  1  2  1  0
  2  3  1  0
  3  4  1  0
  5  4  1  6
  5  6  1  0
  6  7  1  0
  5  8  1  0
  8  9  1  0
  9 10  1  0
 10 11  2  0
 10 12  1  0
 12 13  2  0
 13 14  1  0
 14 15  2  0
 15 16  1  0
 16 17  1  0
 16 18  1  0
 15 19  1  0
 19 20  2  0
 20 12  1  0
M  END
>  <zinc_id>  (1) 
ZINC000002016258

>  <smiles>  (1) 
CCCC[C@H](CC)COC(=O)c1ccc(N(C)C)cc1

$$$$
