
     RDKit          3D

 17 18  0  0  0  0  0  0  0  0999 V2000
    6.1657    0.7175   -0.2426 C   0  0  0  0  0  0  0  0  0  0  0  0
    4.9031   -0.0614   -0.1625 C   0  0  0  0  0  0  0  0  0  0  0  0
    3.6447    0.5034   -0.1421 C   0  0  0  0  0  0  0  0  0  0  0  0
    2.7409   -0.5247   -0.0677 C   0  0  0  0  0  0  0  0  0  0  0  0
    1.2790   -0.4505   -0.0203 C   0  0  0  0  0  0  0  0  0  0  0  0
    0.5514   -1.4513    0.0544 O   0  0  0  0  0  0  0  0  0  0  0  0
    0.6250    0.8150   -0.0602 N   0  0  0  0  0  0  0  0  0  0  0  0
   -0.7463    0.9869   -0.0238 N   0  0  0  0  0  0  0  0  0  0  0  0
   -1.4652   -0.2168    0.2391 C   0  0  0  0  0  0  0  0  0  0  0  0
   -2.9296    0.1309    0.2542 C   0  0  0  0  0  0  0  0  0  0  0  0
   -3.3714    1.4091   -0.0192 C   0  0  0  0  0  0  0  0  0  0  0  0
   -4.7165    1.7159   -0.0059 C   0  0  0  0  0  0  0  0  0  0  0  0
   -5.6856    0.7694    0.2795 C   0  0  0  0  0  0  0  0  0  0  0  0
   -5.2494   -0.5088    0.5543 C   0  0  0  0  0  0  0  0  0  0  0  0
   -3.8913   -0.8237    0.5418 C   0  0  0  0  0  0  0  0  0  0  0  0
    3.4433   -1.6589   -0.0446 N   0  0  0  0  0  0  0  0  0  0  0  0
    4.7022   -1.3522   -0.1015 O   0  0  0  0  0  0  0  0  0  0  0  0
  1  2  1  0
  2  3  2  0
  3  4  1  0
  4  5  1  0
  5  6  2  0
  5  7  1  0
  7  8  1  0
  8  9  1  0
  9 10  1  0
 10 11  2  0
 11 12  1  0
 12 13  2  0
 13 14  1  0
 14 15  2  0
  4 16  2  0
 16 17  1  0
 17  2  1  0
 15 10  1  0
M  END
>  <zinc_id>  (1) 
ZINC000000001587

>  <smiles>  (1) 
Cc1cc(C(=O)NNCc2ccccc2)no1

$$$$
