
     RDKit          3D

 14 14  0  0  0  0  0  0  0  0999 V2000
    4.6891    0.5419    0.1106 C   0  0  0  0  0  0  0  0  0  0  0  0
    3.5935    0.6221    1.1676 C   0  0  0  0  0  0  0  0  0  0  0  0
    3.2452   -0.8111    1.5804 C   0  0  0  0  0  0  0  0  0  0  0  0
    2.7606   -1.5922    0.3756 C   0  0  0  0  0  0  0  0  0  0  0  0
    1.5350   -0.8923   -0.1469 C   0  0  0  0  0  0  0  0  0  0  0  0
    0.4192   -0.8399    0.9017 C   0  0  0  0  0  0  0  0  0  0  0  0
   -0.7293   -0.1364    0.2854 C   0  0  0  0  0  0  0  0  0  0  0  0
   -1.0474    1.1765    0.5854 C   0  0  0  0  0  0  0  0  0  0  0  0
   -2.1190    1.8391    0.0100 C   0  0  0  0  0  0  0  0  0  0  0  0
   -2.9200    1.1839   -0.9035 C   0  0  0  0  0  0  0  0  0  0  0  0
   -3.9954    1.8845   -1.4643 O   0  0  0  0  0  0  0  0  0  0  0  0
   -2.6393   -0.1219   -1.2291 C   0  0  0  0  0  0  0  0  0  0  0  0
   -1.5549   -0.7661   -0.6372 C   0  0  0  0  0  0  0  0  0  0  0  0
   -1.2374   -2.0882   -0.9423 O   0  0  0  0  0  0  0  0  0  0  0  0
  1  2  1  0
  2  3  1  0
  3  4  1  0
  4  5  1  0
  5  6  1  0
  6  7  1  0
  7  8  2  0
  8  9  1  0
  9 10  2  0
 10 11  1  0
 10 12  1  0
 12 13  2  0
 13 14  1  0
 13  7  1  0
M  END
>  <zinc_id>  (1) 
ZINC000001576892

>  <smiles>  (1) 
CCCCCCc1ccc(O)cc1O

$$$$
