
     RDKit          3D

 23 26  0  0  0  0  0  0  0  0999 V2000
   -4.3355    0.7064   -0.6990 C   0  0  0  0  0  0  0  0  0  0  0  0
   -3.6228   -0.5545   -0.3754 C   0  0  0  0  0  0  0  0  0  0  0  0
   -4.0570   -1.8166   -0.4281 N   0  0  0  0  0  0  0  0  0  0  0  0
   -3.0979   -2.6394   -0.0546 N   0  0  0  0  0  0  0  0  0  0  0  0
   -2.0079   -1.9208    0.2522 C   0  0  0  0  0  0  0  0  0  0  0  0
   -2.3521   -0.6382    0.0478 N   0  0  0  0  0  0  0  0  0  0  0  0
   -1.5234    0.5017    0.2380 C   0  0  0  0  0  0  0  0  0  0  0  0
   -2.2303    1.6763    0.3760 C   0  0  0  0  0  0  0  0  0  0  0  0
   -1.5219    2.8454    0.5654 C   0  0  0  0  0  0  0  0  0  0  0  0
   -0.1444    2.9014    0.6239 C   0  0  0  0  0  0  0  0  0  0  0  0
    0.6883    4.4448    0.8701 Cl  0  0  0  0  0  0  0  0  0  0  0  0
    0.5510    1.7200    0.4845 C   0  0  0  0  0  0  0  0  0  0  0  0
   -0.1310    0.5277    0.2929 C   0  0  0  0  0  0  0  0  0  0  0  0
    0.7728   -0.6096    0.1667 C   0  0  0  0  0  0  0  0  0  0  0  0
    2.1476   -0.2982   -0.2039 C   0  0  0  0  0  0  0  0  0  0  0  0
    2.5128    0.9945   -0.4092 C   0  0  0  0  0  0  0  0  0  0  0  0
    3.7915    1.3434   -0.7592 C   0  0  0  0  0  0  0  0  0  0  0  0
    4.7446    0.3693   -0.9111 C   0  0  0  0  0  0  0  0  0  0  0  0
    4.3935   -0.9451   -0.7075 C   0  0  0  0  0  0  0  0  0  0  0  0
    3.1048   -1.2831   -0.3559 C   0  0  0  0  0  0  0  0  0  0  0  0
    2.6137   -2.9342   -0.0877 Cl  0  0  0  0  0  0  0  0  0  0  0  0
    0.4410   -1.8401    0.3581 N   0  0  0  0  0  0  0  0  0  0  0  0
   -0.7374   -2.5512    0.7160 C   0  0  0  0  0  0  0  0  0  0  0  0
  1  2  1  0
  2  3  2  0
  3  4  1  0
  4  5  2  0
  5  6  1  0
  6  7  1  0
  7  8  2  0
  8  9  1  0
  9 10  2  0
 10 11  1  0
 10 12  1  0
 12 13  2  0
 13 14  1  0
 14 15  1  0
 15 16  2  0
 16 17  1  0
 17 18  2  0
 18 19  1  0
 19 20  2  0
 20 21  1  0
 14 22  2  0
 22 23  1  0
  6  2  1  0
 13  7  1  0
 20 15  1  0
 23  5  1  0
M  END
>  <zinc_id>  (1) 
ZINC000000002212

>  <smiles>  (1) 
Cc1nnc2n1-c1ccc(Cl)cc1C(c1ccccc1Cl)=NC2

$$$$
