
     RDKit          3D

  9  8  0  0  0  0  0  0  0  0999 V2000
   -2.9951    0.0270    0.0018 C   0  0  0  0  0  0  0  0  0  0  0  0
   -1.9609   -0.3243   -0.5378 C   0  0  0  0  0  0  0  0  0  0  0  0
   -0.7330   -0.0010    0.4700 C   0  0  2  0  0  0  0  0  0  0  0  0
   -1.0342    1.5978    0.5121 C   0  0  0  0  0  0  0  0  0  0  0  0
    0.4760    0.2473   -0.7603 C   0  0  2  0  0  0  0  0  0  0  0  0
    0.3723   -1.1865   -1.3893 N   0  0  0  0  0  0  0  0  0  0  0  0
    1.6463   -0.0853    0.2727 C   0  0  0  0  0  0  0  0  0  0  0  0
    2.1432   -1.1946    0.3558 O   0  0  0  0  0  0  0  0  0  0  0  0
    2.0853    0.9197    1.0750 O   0  0  0  0  0  0  0  0  0  0  0  0
  1  2  1  0
  2  3  1  0
  3  4  1  6
  3  5  1  0
  5  6  1  6
  5  7  1  0
  7  8  2  0
  7  9  1  0
M  END
>  <zinc_id>  (1) 
ZINC000003581355

>  <smiles>  (1) 
CC[C@H](C)[C@H](N)C(=O)O

$$$$
