
     RDKit          3D

 24 25  0  0  0  0  0  0  0  0999 V2000
    1.5299   -0.4625    2.2252 C   0  0  0  0  0  0  0  0  0  0  0  0
    2.1547   -0.3462    0.7201 C   0  0  1  0  0  0  0  0  0  0  0  0
    3.0222   -1.7774    0.8697 C   0  0  0  0  0  0  0  0  0  0  0  0
    3.7291   -1.8903   -0.4882 C   0  0  0  0  0  0  0  0  0  0  0  0
    4.5681   -0.6676   -0.5792 C   0  0  0  0  0  0  0  0  0  0  0  0
    4.1126    0.5117   -1.1272 C   0  0  0  0  0  0  0  0  0  0  0  0
    4.9247    1.6013   -1.1817 C   0  0  0  0  0  0  0  0  0  0  0  0
    6.2087    1.5501   -0.6945 C   0  0  0  0  0  0  0  0  0  0  0  0
    6.6624    0.3812   -0.1502 C   0  0  0  0  0  0  0  0  0  0  0  0
    5.8626   -0.7301   -0.0844 C   0  0  0  0  0  0  0  0  0  0  0  0
    0.9844   -1.0385   -0.0226 N   0  0  0  0  0  0  0  0  0  0  0  0
   -0.2105   -0.3956    0.0186 C   0  0  0  0  0  0  0  0  0  0  0  0
   -0.9333   -0.4384    1.5032 C   0  0  2  0  0  0  0  0  0  0  0  0
   -1.0485   -1.9727    1.5749 O   0  0  0  0  0  0  0  0  0  0  0  0
   -2.4193   -0.2177    0.9934 C   0  0  0  0  0  0  0  0  0  0  0  0
   -3.3780   -0.8830    1.6886 C   0  0  0  0  0  0  0  0  0  0  0  0
   -4.7207   -0.7127    1.2779 C   0  0  0  0  0  0  0  0  0  0  0  0
   -4.9834    0.1127    0.2023 C   0  0  0  0  0  0  0  0  0  0  0  0
   -6.2917    0.3031   -0.2278 O   0  0  0  0  0  0  0  0  0  0  0  0
   -3.9997    0.7705   -0.4801 C   0  0  0  0  0  0  0  0  0  0  0  0
   -4.2348    1.6434   -1.6106 C   0  0  0  0  0  0  0  0  0  0  0  0
   -5.5518    1.8605   -2.0747 N   0  0  0  0  0  0  0  0  0  0  0  0
   -3.2975    2.2190   -2.1966 O   0  0  0  0  0  0  0  0  0  0  0  0
   -2.6904    0.5792   -0.0476 C   0  0  0  0  0  0  0  0  0  0  0  0
  2  1  1  1
  2  3  1  0
  3  4  1  0
  4  5  1  0
  5  6  2  0
  6  7  1  0
  7  8  2  0
  8  9  1  0
  9 10  2  0
  2 11  1  0
 11 12  1  0
 12 13  1  0
 13 14  1  6
 13 15  1  0
 15 16  2  0
 16 17  1  0
 17 18  2  0
 18 19  1  0
 18 20  1  0
 20 21  1  0
 21 22  1  0
 21 23  2  0
 20 24  2  0
 10  5  1  0
 24 15  1  0
M  END
>  <zinc_id>  (1) 
ZINC000000403010

>  <smiles>  (1) 
C[C@@H](CCc1ccccc1)NC[C@H](O)c1ccc(O)c(C(N)=O)c1

$$$$
