
     RDKit          3D

 27 29  0  0  0  0  0  0  0  0999 V2000
   -3.9742    2.3106    3.0437 C   0  0  0  0  0  0  0  0  0  0  0  0
   -4.9954    2.1155    2.0006 C   0  0  0  0  0  0  0  0  0  0  0  0
   -4.8253    1.3839    0.9196 C   0  0  0  0  0  0  0  0  0  0  0  0
   -3.5669    0.7069    0.7014 C   0  0  0  0  0  0  0  0  0  0  0  0
   -3.3951   -0.0324   -0.3805 C   0  0  0  0  0  0  0  0  0  0  0  0
   -4.4913   -0.1614   -1.3659 C   0  0  0  0  0  0  0  0  0  0  0  0
   -5.5756    0.4333   -1.1532 O   0  0  0  0  0  0  0  0  0  0  0  0
   -4.4258   -0.8963   -2.5279 O   0  0  0  0  0  0  0  0  0  0  0  0
   -2.2282   -0.7649   -0.7162 N   0  0  0  0  0  0  0  0  0  0  0  0
   -1.3014   -1.1682   -1.6815 C   0  0  0  0  0  0  0  0  0  0  0  0
   -1.0542   -0.9493   -2.8300 O   0  0  0  0  0  0  0  0  0  0  0  0
   -0.6214   -2.0970   -0.6472 C   0  0  1  0  0  0  0  0  0  0  0  0
    0.7327   -1.8510   -0.4654 N   0  0  0  0  0  0  0  0  0  0  0  0
    1.7759   -1.1166   -0.2512 C   0  0  0  0  0  0  0  0  0  0  0  0
    1.6536    0.0894   -0.0852 O   0  0  0  0  0  0  0  0  0  0  0  0
    3.2814   -1.7287   -0.1898 C   0  0  2  0  0  0  0  0  0  0  0  0
    3.1048   -2.3711    1.2349 N   0  0  0  0  0  0  0  0  0  0  0  0
    4.0424   -0.4301    0.3106 C   0  0  0  0  0  0  0  0  0  0  0  0
    5.0955   -0.0610   -0.5387 C   0  0  0  0  0  0  0  0  0  0  0  0
    5.8188    1.0460   -0.1609 C   0  0  0  0  0  0  0  0  0  0  0  0
    5.5236    1.7478    0.9787 C   0  0  0  0  0  0  0  0  0  0  0  0
    6.3036    2.8524    1.2780 O   0  0  0  0  0  0  0  0  0  0  0  0
    4.4662    1.3275    1.7723 C   0  0  0  0  0  0  0  0  0  0  0  0
    3.7094    0.2172    1.4327 C   0  0  0  0  0  0  0  0  0  0  0  0
   -1.5849   -1.5287    0.4681 C   0  0  1  0  0  0  0  0  0  0  0  0
   -0.9625    0.0333    1.2507 S   0  0  0  0  0  0  0  0  0  0  0  0
   -2.5056    0.8927    1.7206 C   0  0  0  0  0  0  0  0  0  0  0  0
  1  2  1  0
  2  3  2  0
  3  4  1  0
  4  5  2  0
  5  6  1  0
  6  7  2  0
  6  8  1  0
  5  9  1  0
  9 10  1  0
 10 11  2  0
 10 12  1  0
 12 13  1  1
 13 14  1  0
 14 15  2  0
 14 16  1  0
 16 17  1  1
 16 18  1  0
 18 19  2  0
 19 20  1  0
 20 21  2  0
 21 22  1  0
 21 23  1  0
 23 24  2  0
 12 25  1  0
 25 26  1  1
 26 27  1  0
 27  4  1  0
 25  9  1  0
 24 18  1  0
M  END
>  <zinc_id>  (1) 
ZINC000004474443

>  <smiles>  (1) 
C/C=C\C1=C(C(=O)O)N2C(=O)[C@@H](NC(=O)[C@H](N)c3ccc(O)cc3)[C@H]2SC1

$$$$
