
     RDKit          3D

 16 18  0  0  0  0  0  0  0  0999 V2000
   -2.9120    1.6853   -0.4115 C   0  0  0  0  0  0  0  0  0  0  0  0
   -1.8589    2.1047    0.3681 C   0  0  0  0  0  0  0  0  0  0  0  0
   -0.8914    1.1973    0.7216 C   0  0  0  0  0  0  0  0  0  0  0  0
   -0.9817   -0.1169    0.2963 C   0  0  0  0  0  0  0  0  0  0  0  0
   -2.0436   -0.5193   -0.4839 C   0  0  0  0  0  0  0  0  0  0  0  0
   -3.0319    0.3844   -0.8516 C   0  0  0  0  0  0  0  0  0  0  0  0
   -2.0990   -1.8410   -0.8884 C   0  0  0  0  0  0  0  0  0  0  0  0
   -1.1454   -2.7671   -0.5476 C   0  0  0  0  0  0  0  0  0  0  0  0
   -0.0828   -2.3720    0.2311 C   0  0  0  0  0  0  0  0  0  0  0  0
   -0.0115   -1.0545    0.6443 C   0  0  0  0  0  0  0  0  0  0  0  0
    1.1120   -0.5643    1.4854 C   0  0  0  0  0  0  0  0  0  0  0  0
    2.0167    0.2048    0.5554 C   0  0  0  0  0  0  0  0  0  0  0  0
    2.3164    1.4442    0.7167 N   0  0  0  0  0  0  0  0  0  0  0  0
    3.2089    1.9160   -0.3381 C   0  0  0  0  0  0  0  0  0  0  0  0
    3.7508    0.6105   -0.8943 C   0  0  0  0  0  0  0  0  0  0  0  0
    2.6534   -0.3121   -0.6035 N   0  0  0  0  0  0  0  0  0  0  0  0
  1  2  2  0
  2  3  1  0
  3  4  2  0
  4  5  1  0
  5  6  2  0
  5  7  1  0
  7  8  2  0
  8  9  1  0
  9 10  2  0
 10 11  1  0
 11 12  1  0
 12 13  2  0
 13 14  1  0
 14 15  1  0
 15 16  1  0
  6  1  1  0
 16 12  1  0
 10  4  1  0
M  END
>  <zinc_id>  (1) 
ZINC000000119717

>  <smiles>  (1) 
c1ccc2c(CC3=NCCN3)cccc2c1

$$$$
