
     RDKit          3D

 14 15  0  0  0  0  0  0  0  0999 V2000
    2.9209    1.7459    0.0855 C   0  0  0  0  0  0  0  0  0  0  0  0
    2.1749    0.4923    0.0220 N   0  0  0  0  0  0  0  0  0  0  0  0
    2.6992   -0.7597   -0.0434 C   0  0  0  0  0  0  0  0  0  0  0  0
    1.6820   -1.6390   -0.0872 N   0  0  0  0  0  0  0  0  0  0  0  0
    0.4939   -0.9809   -0.0514 C   0  0  0  0  0  0  0  0  0  0  0  0
    0.8349    0.3578    0.0172 C   0  0  0  0  0  0  0  0  0  0  0  0
   -0.2219    1.2431    0.0645 C   0  0  0  0  0  0  0  0  0  0  0  0
    0.0623    2.4696    0.1273 O   0  0  0  0  0  0  0  0  0  0  0  0
   -1.4829    0.7974    0.0435 N   0  0  0  0  0  0  0  0  0  0  0  0
   -2.5254    1.8208    0.0979 C   0  0  0  0  0  0  0  0  0  0  0  0
   -1.7740   -0.5103   -0.0235 C   0  0  0  0  0  0  0  0  0  0  0  0
   -2.9906   -0.8166   -0.0375 O   0  0  0  0  0  0  0  0  0  0  0  0
   -0.7799   -1.4067   -0.0714 N   0  0  0  0  0  0  0  0  0  0  0  0
   -1.0936   -2.8137   -0.1434 C   0  0  0  0  0  0  0  0  0  0  0  0
  1  2  1  0
  2  3  1  0
  3  4  2  0
  4  5  1  0
  5  6  2  0
  6  7  1  0
  7  8  2  0
  7  9  1  0
  9 10  1  0
  9 11  1  0
 11 12  2  0
 11 13  1  0
 13 14  1  0
  6  2  1  0
 13  5  1  0
M  END
>  <zinc_id>  (1) 
ZINC000000001084

>  <smiles>  (1) 
Cn1c(=O)c2c(ncn2C)n(C)c1=O

$$$$
