
     RDKit          3D

 28 30  0  0  0  0  0  0  0  0999 V2000
    5.4980    3.7733   -1.6112 N   0  0  0  0  0  0  0  0  0  0  0  0
    5.6319    2.5211   -1.4197 C   0  0  0  0  0  0  0  0  0  0  0  0
    4.8997    1.5477   -1.8618 N   0  0  0  0  0  0  0  0  0  0  0  0
    5.1650    0.3119   -1.5782 C   0  0  0  0  0  0  0  0  0  0  0  0
    4.3492   -0.8669   -2.0654 C   0  0  0  0  0  0  0  0  0  0  0  0
    3.2712   -1.0255   -1.0743 C   0  0  0  0  0  0  0  0  0  0  0  0
    3.2175   -0.2387   -0.1109 O   0  0  0  0  0  0  0  0  0  0  0  0
    2.2784   -2.0410   -1.1632 N   0  0  0  0  0  0  0  0  0  0  0  0
    1.2988   -2.0641   -0.1346 C   0  0  0  0  0  0  0  0  0  0  0  0
    1.2581   -1.1403    0.8890 C   0  0  0  0  0  0  0  0  0  0  0  0
    0.3067   -1.1638    1.8811 C   0  0  0  0  0  0  0  0  0  0  0  0
   -0.6794   -2.1301    1.9103 C   0  0  0  0  0  0  0  0  0  0  0  0
   -1.7338   -2.2309    2.9257 C   0  0  0  0  0  0  0  0  0  0  0  0
   -2.9831   -1.6213    2.5891 C   0  0  0  0  0  0  0  0  0  0  0  0
   -3.0766   -0.2421    2.2998 N   0  0  0  0  0  0  0  0  0  0  0  0
   -2.4792    0.1357    1.0411 C   0  0  0  0  0  0  0  0  0  0  0  0
   -3.4546   -0.5567   -0.0859 C   0  0  2  0  0  0  0  0  0  0  0  0
   -2.6281   -0.0208   -1.2636 O   0  0  0  0  0  0  0  0  0  0  0  0
   -4.5284    0.5781   -0.1241 C   0  0  0  0  0  0  0  0  0  0  0  0
   -5.0532    1.0027   -1.2967 C   0  0  0  0  0  0  0  0  0  0  0  0
   -6.0293    2.0270   -1.2823 C   0  0  0  0  0  0  0  0  0  0  0  0
   -6.4325    2.5767   -0.0849 C   0  0  0  0  0  0  0  0  0  0  0  0
   -5.8990    2.1454    1.1158 C   0  0  0  0  0  0  0  0  0  0  0  0
   -4.9508    1.1443    1.0381 C   0  0  0  0  0  0  0  0  0  0  0  0
   -0.6440   -3.0703    0.8753 C   0  0  0  0  0  0  0  0  0  0  0  0
    0.3136   -3.0362   -0.1125 C   0  0  0  0  0  0  0  0  0  0  0  0
    6.2605    0.0655   -0.7842 C   0  0  0  0  0  0  0  0  0  0  0  0
    6.8234    1.6794   -0.5116 S   0  0  0  0  0  0  0  0  0  0  0  0
  1  2  1  0
  2  3  2  0
  3  4  1  0
  4  5  1  0
  5  6  1  0
  6  7  2  0
  6  8  1  0
  8  9  1  0
  9 10  2  0
 10 11  1  0
 11 12  2  0
 12 13  1  0
 13 14  1  0
 14 15  1  0
 15 16  1  0
 16 17  1  0
 17 18  1  6
 17 19  1  0
 19 20  2  0
 20 21  1  0
 21 22  2  0
 22 23  1  0
 23 24  2  0
 12 25  1  0
 25 26  2  0
  4 27  2  0
 27 28  1  0
 28  2  1  0
 26  9  1  0
 24 19  1  0
M  END
>  <zinc_id>  (1) 
ZINC000001996784

>  <smiles>  (1) 
Nc1nc(CC(=O)Nc2ccc(CCNC[C@H](O)c3ccccc3)cc2)cs1

$$$$
