
     RDKit          3D

 14 14  0  0  0  0  0  0  0  0999 V2000
   -1.0541   -2.6424    0.0333 C   0  0  0  0  0  0  0  0  0  0  0  0
   -1.2241   -2.2088    0.0496 O   0  0  0  0  0  0  0  0  0  0  0  0
   -1.7537   -0.9038    0.0962 C   0  0  0  0  0  0  0  0  0  0  0  0
   -3.1112   -0.7688   -0.0712 C   0  0  0  0  0  0  0  0  0  0  0  0
   -3.6367    0.5036   -0.0269 C   0  0  0  0  0  0  0  0  0  0  0  0
   -2.8076    1.5800    0.1788 C   0  0  0  0  0  0  0  0  0  0  0  0
   -1.4269    1.3985    0.3450 C   0  0  0  0  0  0  0  0  0  0  0  0
   -0.8903    0.1223    0.3019 C   0  0  0  0  0  0  0  0  0  0  0  0
    0.4536   -0.0532    0.4638 O   0  0  0  0  0  0  0  0  0  0  0  0
    1.3979    0.9674    0.6798 C   0  0  0  0  0  0  0  0  0  0  0  0
    2.8355    0.1615    0.7978 C   0  0  1  0  0  0  0  0  0  0  0  0
    2.7075   -0.4250   -0.6211 O   0  0  0  0  0  0  0  0  0  0  0  0
    3.7056    1.4694    0.2375 C   0  0  0  0  0  0  0  0  0  0  0  0
    4.8046    0.7993   -0.3283 O   0  0  0  0  0  0  0  0  0  0  0  0
  1  2  1  0
  2  3  1  0
  3  4  2  0
  4  5  1  0
  5  6  2  0
  6  7  1  0
  7  8  2  0
  8  9  1  0
  9 10  1  0
 10 11  1  0
 11 12  1  6
 11 13  1  0
 13 14  1  0
  8  3  1  0
M  END
>  <zinc_id>  (1) 
ZINC000000394284

>  <smiles>  (1) 
COc1ccccc1OC[C@@H](O)CO

$$$$
