
     RDKit          3D

 38 42  0  0  0  0  0  0  0  0999 V2000
    5.5575   -3.2767   -2.1737 C   0  0  0  0  0  0  0  0  0  0  0  0
    5.1793   -2.7097   -1.7596 O   0  0  0  0  0  0  0  0  0  0  0  0
    5.3748   -1.6635   -0.8549 C   0  0  0  0  0  0  0  0  0  0  0  0
    6.6612   -1.4091   -0.4398 C   0  0  0  0  0  0  0  0  0  0  0  0
    6.8707   -0.3788    0.4539 C   0  0  0  0  0  0  0  0  0  0  0  0
    5.8359    0.3990    0.9407 C   0  0  0  0  0  0  0  0  0  0  0  0
    4.5457    0.1512    0.5306 C   0  0  0  0  0  0  0  0  0  0  0  0
    4.3486   -0.8820   -0.3635 C   0  0  0  0  0  0  0  0  0  0  0  0
    2.9937   -1.1583   -0.8076 C   0  0  0  0  0  0  0  0  0  0  0  0
    2.7577   -2.0882   -1.6217 O   0  0  0  0  0  0  0  0  0  0  0  0
    1.8574   -0.3684   -0.3267 C   0  0  0  0  0  0  0  0  0  0  0  0
    0.5754   -0.6533   -0.7668 C   0  0  0  0  0  0  0  0  0  0  0  0
    0.4224   -1.6977   -1.6635 O   0  0  0  0  0  0  0  0  0  0  0  0
   -0.4208    0.1223   -0.2758 C   0  0  0  0  0  0  0  0  0  0  0  0
   -0.2473    1.1185    0.5844 C   0  0  0  0  0  0  0  0  0  0  0  0
    1.0180    1.4261    1.0405 C   0  0  0  0  0  0  0  0  0  0  0  0
    1.2068    2.4505    1.9262 O   0  0  0  0  0  0  0  0  0  0  0  0
    2.0856    0.6588    0.5674 C   0  0  0  0  0  0  0  0  0  0  0  0
    3.4407    0.9668    1.0380 C   0  0  0  0  0  0  0  0  0  0  0  0
    3.6144    1.9089    1.8523 O   0  0  0  0  0  0  0  0  0  0  0  0
   -1.3989    1.9003    1.0748 C   0  0  0  0  0  0  0  0  0  0  0  0
   -2.1653    2.3045   -0.1604 C   0  0  1  0  0  0  0  0  0  0  0  0
   -3.3558    2.9683    0.1818 O   0  0  0  0  0  0  0  0  0  0  0  0
   -1.3227    3.4222   -0.7419 C   0  0  0  0  0  0  0  0  0  0  0  0
   -1.8092    4.8199   -0.8283 C   0  0  0  0  0  0  0  0  0  0  0  0
   -0.1967    3.2167   -1.1678 O   0  0  0  0  0  0  0  0  0  0  0  0
   -2.2660    1.3718   -1.2552 C   0  0  0  0  0  0  0  0  0  0  0  0
   -1.9302   -0.1927   -0.7970 C   0  0  2  0  0  0  0  0  0  0  0  0
   -2.5647   -0.1057    0.6086 O   0  0  0  0  0  0  0  0  0  0  0  0
   -3.9820   -0.4141    0.0387 C   0  0  1  0  0  0  0  0  0  0  0  0
   -3.7436   -2.0844    0.0527 C   0  0  0  0  0  0  0  0  0  0  0  0
   -4.8545   -2.5809    1.1200 C   0  0  2  0  0  0  0  0  0  0  0  0
   -5.1426   -3.9327    0.3839 N   0  0  0  0  0  0  0  0  0  0  0  0
   -6.2708   -1.8787    0.4784 C   0  0  2  0  0  0  0  0  0  0  0  0
   -5.8995   -1.6785   -0.9279 O   0  0  0  0  0  0  0  0  0  0  0  0
   -6.0740   -0.3237    1.1544 C   0  0  2  0  0  0  0  0  0  0  0  0
   -6.0997    0.5960   -0.2176 C   0  0  0  0  0  0  0  0  0  0  0  0
   -4.6019   -0.3247    1.4454 O   0  0  0  0  0  0  0  0  0  0  0  0
  1  2  1  0
  2  3  1  0
  3  4  2  0
  4  5  1  0
  5  6  2  0
  6  7  1  0
  7  8  2  0
  8  9  1  0
  9 10  2  0
  9 11  1  0
 11 12  2  0
 12 13  1  0
 12 14  1  0
 14 15  2  0
 15 16  1  0
 16 17  1  0
 16 18  2  0
 18 19  1  0
 19 20  2  0
 15 21  1  0
 21 22  1  0
 22 23  1  1
 22 24  1  0
 24 25  1  0
 24 26  2  0
 22 27  1  0
 27 28  1  0
 28 29  1  1
 30 29  1  1
 30 31  1  0
 31 32  1  0
 32 33  1  6
 32 34  1  0
 34 35  1  6
 34 36  1  0
 36 37  1  6
 36 38  1  0
  8  3  1  0
 18 11  1  0
 38 30  1  0
 19  7  1  0
 28 14  1  0
M  END
>  <zinc_id>  (1) 
ZINC000003917708

>  <smiles>  (1) 
COc1cccc2c1C(=O)c1c(O)c3c(c(O)c1C2=O)C[C@@](O)(C(C)=O)C[C@@H]3O[C@H]1C[C@H](N)[C@H](O)[C@H](C)O1

$$$$
