
     RDKit          3D

 13 13  0  0  0  0  0  0  0  0999 V2000
   -4.0118   -0.4698   -0.7830 C   0  0  0  0  0  0  0  0  0  0  0  0
   -3.1401    0.0703    0.2139 N   0  0  0  0  0  0  0  0  0  0  0  0
   -3.6709    0.8557    1.2860 C   0  0  0  0  0  0  0  0  0  0  0  0
   -1.7532   -0.1673    0.1468 C   0  0  0  0  0  0  0  0  0  0  0  0
   -1.2546   -0.8665   -0.8021 O   0  0  0  0  0  0  0  0  0  0  0  0
   -0.8473    0.3190    1.0699 O   0  0  0  0  0  0  0  0  0  0  0  0
    0.4995    0.0296    0.9163 C   0  0  0  0  0  0  0  0  0  0  0  0
    1.0947   -1.0837    1.4679 C   0  0  0  0  0  0  0  0  0  0  0  0
    2.4431   -1.3127    1.2759 C   0  0  0  0  0  0  0  0  0  0  0  0
    3.2327   -0.4486    0.5360 C   0  0  0  0  0  0  0  0  0  0  0  0
    2.6351    0.6360    0.0030 N   0  0  0  0  0  0  0  0  0  0  0  0
    3.4491    1.5712   -0.7877 C   0  0  0  0  0  0  0  0  0  0  0  0
    1.3236    0.8669    0.1846 C   0  0  0  0  0  0  0  0  0  0  0  0
  1  2  1  0
  2  3  1  0
  2  4  1  0
  4  5  2  0
  4  6  1  0
  6  7  1  0
  7  8  2  0
  8  9  1  0
  9 10  2  0
 10 11  1  0
 11 12  1  0
 11 13  2  0
 13  7  1  0
M  CHG  1  11   1
M  END
>  <zinc_id>  (1) 
ZINC000000002009

>  <smiles>  (1) 
CN(C)C(=O)Oc1ccc[n+](C)c1

$$$$
