
     RDKit          3D

 16 17  0  0  0  0  0  0  0  0999 V2000
   -0.1626   -2.2304    1.4679 C   0  0  0  0  0  0  0  0  0  0  0  0
   -0.7972   -1.7840    0.1696 C   0  0  0  0  0  0  0  0  0  0  0  0
   -0.5977   -0.2939   -0.0580 C   0  0  0  0  0  0  0  0  0  0  0  0
    0.8857   -0.0619   -0.1032 C   0  0  0  0  0  0  0  0  0  0  0  0
    1.5870   -0.1062    1.0765 C   0  0  0  0  0  0  0  0  0  0  0  0
    2.9474    0.0993    1.0904 C   0  0  0  0  0  0  0  0  0  0  0  0
    3.6139    0.3502   -0.0734 C   0  0  0  0  0  0  0  0  0  0  0  0
    2.9103    0.3930   -1.2435 C   0  0  0  0  0  0  0  0  0  0  0  0
    1.5658    0.1901   -1.2592 C   0  0  0  0  0  0  0  0  0  0  0  0
   -1.1441    0.5012    1.0663 C   0  0  0  0  0  0  0  0  0  0  0  0
   -0.5986    0.5403    2.1952 O   0  0  0  0  0  0  0  0  0  0  0  0
   -2.3306    1.2415    0.8417 N   0  0  0  0  0  0  0  0  0  0  0  0
   -3.3126    0.6989   -0.0721 C   0  0  0  0  0  0  0  0  0  0  0  0
   -2.6515    0.3373   -1.3096 N   0  0  0  0  0  0  0  0  0  0  0  0
   -1.2406    0.0376   -1.3314 C   0  0  0  0  0  0  0  0  0  0  0  0
   -0.6745    0.0869   -2.4571 O   0  0  0  0  0  0  0  0  0  0  0  0
  1  2  1  0
  2  3  1  0
  3  4  1  0
  4  5  2  0
  5  6  1  0
  6  7  2  0
  7  8  1  0
  8  9  2  0
  3 10  1  0
 10 11  2  0
 10 12  1  0
 12 13  1  0
 13 14  1  0
 14 15  1  0
 15 16  2  0
 15  3  1  0
  9  4  1  0
M  END
>  <zinc_id>  (1) 
ZINC000000001979

>  <smiles>  (1) 
CCC1(c2ccccc2)C(=O)NCNC1=O

$$$$
