
     RDKit          3D

 15 15  0  0  0  0  0  0  0  0999 V2000
    4.2078   -1.0365   -0.4520 N   0  0  0  0  0  0  0  0  0  0  0  0
    3.2332   -0.0003   -0.4392 C   0  0  0  0  0  0  0  0  0  0  0  0
    3.4788    1.1805   -1.1843 N   0  0  0  0  0  0  0  0  0  0  0  0
    2.1524   -0.1121    0.2227 N   0  0  0  0  0  0  0  0  0  0  0  0
    1.1049    0.8402    0.3181 C   0  0  0  0  0  0  0  0  0  0  0  0
    1.1896    1.8636   -0.3877 O   0  0  0  0  0  0  0  0  0  0  0  0
   -0.0088    0.5241    1.2650 C   0  0  0  0  0  0  0  0  0  0  0  0
   -1.1646   -0.0298    0.5112 C   0  0  0  0  0  0  0  0  0  0  0  0
   -1.2151   -1.3836    0.1778 C   0  0  0  0  0  0  0  0  0  0  0  0
    0.0445   -2.4195    0.7408 Cl  0  0  0  0  0  0  0  0  0  0  0  0
   -2.2373   -1.9220   -0.5514 C   0  0  0  0  0  0  0  0  0  0  0  0
   -3.2481   -1.0674   -0.9602 C   0  0  0  0  0  0  0  0  0  0  0  0
   -3.2104    0.2581   -0.6396 C   0  0  0  0  0  0  0  0  0  0  0  0
   -2.1634    0.7888    0.1017 C   0  0  0  0  0  0  0  0  0  0  0  0
   -2.1635    2.5159    0.5048 Cl  0  0  0  0  0  0  0  0  0  0  0  0
  1  2  1  0
  2  3  1  0
  2  4  2  3
  4  5  1  0
  5  6  2  0
  5  7  1  0
  7  8  1  0
  8  9  2  0
  9 10  1  0
  9 11  1  0
 11 12  2  0
 12 13  1  0
 13 14  2  0
 14 15  1  0
 14  8  1  0
M  END
>  <zinc_id>  (1) 
ZINC000003872738

>  <smiles>  (1) 
NC(N)=NC(=O)Cc1c(Cl)cccc1Cl

$$$$
