
     RDKit          3D

 35 38  0  0  0  0  0  0  0  0999 V2000
    4.6980   -3.1996    3.0356 C   0  0  0  0  0  0  0  0  0  0  0  0
    4.3596   -1.8339    3.5661 C   0  0  0  0  0  0  0  0  0  0  0  0
    4.0563   -0.9009    2.5473 O   0  0  0  0  0  0  0  0  0  0  0  0
    2.9937   -1.1349    1.6787 C   0  0  0  0  0  0  0  0  0  0  0  0
    2.3644   -2.1957    1.8749 O   0  0  0  0  0  0  0  0  0  0  0  0
    2.6115   -0.3185    0.6712 O   0  0  0  0  0  0  0  0  0  0  0  0
    1.5884   -0.3945   -0.2452 C   0  0  1  0  0  0  0  0  0  0  0  0
    1.7906    0.7929   -1.1725 C   0  0  0  0  0  0  0  0  0  0  0  0
    0.9094    0.9761   -2.0420 O   0  0  0  0  0  0  0  0  0  0  0  0
    2.8606    1.7354   -1.1798 C   0  0  0  0  0  0  0  0  0  0  0  0
    4.0258    1.6821   -0.5578 O   0  0  0  0  0  0  0  0  0  0  0  0
    5.1320    0.8790   -0.6656 C   0  0  0  0  0  0  0  0  0  0  0  0
    5.0930   -0.0277   -1.5413 O   0  0  0  0  0  0  0  0  0  0  0  0
    6.3037    1.0933    0.2215 C   0  0  0  0  0  0  0  0  0  0  0  0
    7.4540    1.7365   -0.5282 C   0  0  0  0  0  0  0  0  0  0  0  0
    1.6233   -1.6301   -1.1005 C   0  0  0  0  0  0  0  0  0  0  0  0
    0.1459   -2.0796   -1.2431 C   0  0  0  0  0  0  0  0  0  0  0  0
   -0.5181   -0.6010   -1.2141 C   0  0  1  0  0  0  0  0  0  0  0  0
   -1.9919   -1.0947   -0.5651 C   0  0  2  0  0  0  0  0  0  0  0  0
   -2.6609   -1.2568   -2.0277 C   0  0  0  0  0  0  0  0  0  0  0  0
   -4.1235   -1.4001   -1.8843 C   0  0  0  0  0  0  0  0  0  0  0  0
   -4.6832   -0.1879   -1.2110 C   0  0  0  0  0  0  0  0  0  0  0  0
   -5.6728    0.4903   -1.6759 C   0  0  0  0  0  0  0  0  0  0  0  0
   -6.2114    1.6655   -1.0155 C   0  0  0  0  0  0  0  0  0  0  0  0
   -7.1692    2.2996   -1.4913 O   0  0  0  0  0  0  0  0  0  0  0  0
   -5.5386    2.0262    0.2322 C   0  0  0  0  0  0  0  0  0  0  0  0
   -4.5422    1.3326    0.6878 C   0  0  0  0  0  0  0  0  0  0  0  0
   -3.9910    0.1629    0.0469 C   0  0  1  0  0  0  0  0  0  0  0  0
   -4.0061   -1.0716    0.8774 C   0  0  0  0  0  0  0  0  0  0  0  0
   -2.4831    0.5304   -0.4103 C   0  0  1  0  0  0  0  0  0  0  0  0
   -1.8450    0.5778    1.1642 C   0  0  2  0  0  0  0  0  0  0  0  0
   -2.2252    2.0583    1.3526 O   0  0  0  0  0  0  0  0  0  0  0  0
   -0.3284    1.0270    0.5785 C   0  0  0  0  0  0  0  0  0  0  0  0
    0.1992   -0.3276    0.2452 C   0  0  2  0  0  0  0  0  0  0  0  0
   -0.2191   -1.4110    1.1287 C   0  0  0  0  0  0  0  0  0  0  0  0
  1  2  1  0
  2  3  1  0
  3  4  1  0
  4  5  2  0
  4  6  1  0
  7  6  1  1
  7  8  1  0
  8  9  2  0
  8 10  1  0
 10 11  1  0
 11 12  1  0
 12 13  2  0
 12 14  1  0
 14 15  1  0
  7 16  1  0
 16 17  1  0
 18 17  1  1
 18 19  1  0
 19 20  1  6
 20 21  1  0
 21 22  1  0
 22 23  2  0
 23 24  1  0
 24 25  2  0
 24 26  1  0
 26 27  2  0
 27 28  1  0
 28 29  1  1
 28 30  1  0
 30 31  1  1
 31 32  1  1
 31 33  1  0
 33 34  1  0
 34 35  1  1
 34  7  1  0
 34 18  1  0
 30 19  1  0
 28 22  1  0
M  END
>  <zinc_id>  (1) 
ZINC000000601253

>  <smiles>  (1) 
CCOC(=O)O[C@@]1(C(=O)COC(=O)CC)CC[C@H]2[C@@H]3CCC4=CC(=O)C=C[C@]4(C)[C@H]3[C@H](O)C[C@@]21C

$$$$
