
     RDKit          3D

  7  6  0  0  0  0  0  0  0  0999 V2000
   -1.5518    0.7969   -1.2630 O   0  0  0  0  0  0  0  0  0  0  0  0
   -1.4613    0.1164   -0.2224 C   0  0  0  0  0  0  0  0  0  0  0  0
   -2.6313   -0.4073    0.3431 O   0  0  0  0  0  0  0  0  0  0  0  0
   -0.1757   -0.1813    0.4695 C   0  0  0  0  0  0  0  0  0  0  0  0
    0.9161    0.4929   -0.3377 C   0  0  0  0  0  0  0  0  0  0  0  0
    2.2871    0.2561    0.2784 C   0  0  0  0  0  0  0  0  0  0  0  0
    2.6169   -1.0737    0.3535 O   0  0  0  0  0  0  0  0  0  0  0  0
  1  2  2  0
  2  3  1  0
  2  4  1  0
  4  5  1  0
  5  6  1  0
  6  7  1  0
M  END
>  <zinc_id>  (1) 
ZINC000001532805

>  <smiles>  (1) 
O=C(O)CCCO

$$$$
