
     RDKit          3D

 22 25  0  0  0  0  0  0  0  0999 V2000
   -4.1450    0.5853   -1.1329 C   0  0  0  0  0  0  0  0  0  0  0  0
   -3.4945   -0.6294   -0.5619 C   0  0  0  0  0  0  0  0  0  0  0  0
   -4.0165   -1.8591   -0.4416 N   0  0  0  0  0  0  0  0  0  0  0  0
   -3.1261   -2.6646    0.1150 N   0  0  0  0  0  0  0  0  0  0  0  0
   -2.0079   -1.9669    0.3655 C   0  0  0  0  0  0  0  0  0  0  0  0
   -2.2481   -0.7155   -0.0560 N   0  0  0  0  0  0  0  0  0  0  0  0
   -1.4172    0.4458   -0.0398 C   0  0  0  0  0  0  0  0  0  0  0  0
   -2.0588    1.6280   -0.2265 C   0  0  0  0  0  0  0  0  0  0  0  0
   -1.3210    2.8174   -0.2258 C   0  0  0  0  0  0  0  0  0  0  0  0
    0.0466    2.7922   -0.0374 C   0  0  0  0  0  0  0  0  0  0  0  0
    0.8892    4.3288   -0.0516 Cl  0  0  0  0  0  0  0  0  0  0  0  0
    0.7108    1.5918    0.1539 C   0  0  0  0  0  0  0  0  0  0  0  0
   -0.0393    0.4287    0.1494 C   0  0  0  0  0  0  0  0  0  0  0  0
    0.8255   -0.7254    0.3647 C   0  0  0  0  0  0  0  0  0  0  0  0
    2.2490   -0.4801    0.1712 C   0  0  0  0  0  0  0  0  0  0  0  0
    2.7461    0.7533   -0.1904 C   0  0  0  0  0  0  0  0  0  0  0  0
    4.1082    0.9566   -0.3675 C   0  0  0  0  0  0  0  0  0  0  0  0
    5.0144   -0.0680   -0.1882 C   0  0  0  0  0  0  0  0  0  0  0  0
    4.5143   -1.2990    0.1730 C   0  0  0  0  0  0  0  0  0  0  0  0
    3.1609   -1.5007    0.3489 C   0  0  0  0  0  0  0  0  0  0  0  0
    0.4236   -1.8897    0.6998 N   0  0  0  0  0  0  0  0  0  0  0  0
   -0.8142   -2.5292    0.9781 C   0  0  0  0  0  0  0  0  0  0  0  0
  1  2  1  0
  2  3  2  0
  3  4  1  0
  4  5  2  0
  5  6  1  0
  6  7  1  0
  7  8  2  0
  8  9  1  0
  9 10  2  0
 10 11  1  0
 10 12  1  0
 12 13  2  0
 13 14  1  0
 14 15  1  0
 15 16  2  0
 16 17  1  0
 17 18  2  0
 18 19  1  0
 19 20  2  0
 14 21  2  0
 21 22  1  0
  6  2  1  0
 13  7  1  0
 20 15  1  0
 22  5  1  0
M  END
>  <zinc_id>  (1) 
ZINC000000000903

>  <smiles>  (1) 
Cc1nnc2n1-c1ccc(Cl)cc1C(c1ccccc1)=NC2

$$$$
