
     RDKit          3D

 28 29  0  0  0  0  0  0  0  0999 V2000
   -1.4162   -1.8166    0.2546 O   0  0  0  0  0  0  0  0  0  0  0  0
   -1.0940   -1.1219    0.1228 C   0  0  0  0  0  0  0  0  0  0  0  0
   -1.9217   -0.0442   -0.3759 N   0  0  0  0  0  0  0  0  0  0  0  0
   -3.3294   -0.2213   -0.6361 C   0  0  0  0  0  0  0  0  0  0  0  0
   -3.9694   -0.6499    0.8042 C   0  0  2  0  0  0  0  0  0  0  0  0
   -5.5074   -0.7955    0.3054 C   0  0  0  0  0  0  0  0  0  0  0  0
   -5.8117    0.0951   -0.7916 C   0  0  0  0  0  0  0  0  0  0  0  0
   -5.8963    1.5055   -0.2142 C   0  0  0  0  0  0  0  0  0  0  0  0
   -5.1392    1.5018    1.0383 C   0  0  0  0  0  0  0  0  0  0  0  0
   -4.0635    0.8076    1.3276 N   0  0  0  0  0  0  0  0  0  0  0  0
    0.3524   -0.8360    0.3598 C   0  0  0  0  0  0  0  0  0  0  0  0
    1.1974   -1.7926    0.8258 C   0  0  0  0  0  0  0  0  0  0  0  0
    2.5533   -1.4841    1.0354 C   0  0  0  0  0  0  0  0  0  0  0  0
    3.3508   -2.4792    1.5041 O   0  0  0  0  0  0  0  0  0  0  0  0
    4.6497   -2.6187    1.8255 C   0  0  0  0  0  0  0  0  0  0  0  0
    5.7217   -2.4418    0.8262 C   0  0  0  0  0  0  0  0  0  0  0  0
    6.9378   -2.6632    1.4808 F   0  0  0  0  0  0  0  0  0  0  0  0
    5.6333   -3.4904   -0.0944 F   0  0  0  0  0  0  0  0  0  0  0  0
    5.8159   -1.2338    0.2122 F   0  0  0  0  0  0  0  0  0  0  0  0
    3.0231   -0.2200    0.7701 C   0  0  0  0  0  0  0  0  0  0  0  0
    2.1691    0.7443    0.2998 C   0  0  0  0  0  0  0  0  0  0  0  0
    0.8217    0.4258    0.0950 C   0  0  0  0  0  0  0  0  0  0  0  0
   -0.0692    1.3809   -0.3806 O   0  0  0  0  0  0  0  0  0  0  0  0
    0.3462    2.7044   -0.6756 C   0  0  0  0  0  0  0  0  0  0  0  0
   -0.8329    3.4925   -1.1654 C   0  0  0  0  0  0  0  0  0  0  0  0
   -1.8042    3.5264   -0.2049 F   0  0  0  0  0  0  0  0  0  0  0  0
   -1.3081    2.9357   -2.3544 F   0  0  0  0  0  0  0  0  0  0  0  0
   -0.4093    4.7893   -1.3822 F   0  0  0  0  0  0  0  0  0  0  0  0
  1  2  2  0
  2  3  1  0
  3  4  1  0
  5  4  1  6
  5  6  1  0
  6  7  1  0
  7  8  1  0
  8  9  1  0
  9 10  1  0
  2 11  1  0
 11 12  2  0
 12 13  1  0
 13 14  1  0
 14 15  1  0
 15 16  1  0
 16 17  1  0
 16 18  1  0
 16 19  1  0
 13 20  2  0
 20 21  1  0
 21 22  2  0
 22 23  1  0
 23 24  1  0
 24 25  1  0
 25 26  1  0
 25 27  1  0
 25 28  1  0
 10  5  1  0
 22 11  1  0
M  END
>  <zinc_id>  (1) 
ZINC000003830842

>  <smiles>  (1) 
O=C(NC[C@@H]1CCCCN1)c1cc(OCC(F)(F)F)ccc1OCC(F)(F)F

$$$$
