
     RDKit          3D

  8  7  0  0  0  0  0  0  0  0999 V2000
    2.4051    0.2472   -0.4163 C   0  0  0  0  0  0  0  0  0  0  0  0
    1.1653   -0.4281   -0.2116 C   0  0  0  0  0  0  0  0  0  0  0  0
    0.7697   -1.0035    1.0324 C   0  0  0  0  0  0  0  0  0  0  0  0
   -0.0355    0.4709   -0.8926 C   0  0  2  0  0  0  0  0  0  0  0  0
    0.2144    1.7476    0.0005 N   0  0  0  0  0  0  0  0  0  0  0  0
   -1.2102   -0.1440   -0.0156 C   0  0  0  0  0  0  0  0  0  0  0  0
   -1.5596    0.4531    0.9794 O   0  0  0  0  0  0  0  0  0  0  0  0
   -1.7491   -1.3432   -0.4763 O   0  0  0  0  0  0  0  0  0  0  0  0
  1  2  1  0
  2  3  1  0
  2  4  1  0
  4  5  1  1
  4  6  1  0
  6  7  2  0
  6  8  1  0
M  END
>  <zinc_id>  (1) 
ZINC000000895099

>  <smiles>  (1) 
CC(C)[C@H](N)C(=O)O

$$$$
