
     RDKit          3D

 20 21  0  0  0  0  0  0  0  0999 V2000
    5.4628   -1.3018    0.3658 C   0  0  0  0  0  0  0  0  0  0  0  0
    4.5257   -1.5614   -0.2939 O   0  0  0  0  0  0  0  0  0  0  0  0
    3.2400   -1.0745   -0.1841 C   0  0  0  0  0  0  0  0  0  0  0  0
    2.2160   -1.4568   -1.0270 C   0  0  0  0  0  0  0  0  0  0  0  0
    0.9332   -0.9561   -0.9028 C   0  0  0  0  0  0  0  0  0  0  0  0
    0.7098   -0.0772    0.0724 C   0  0  0  0  0  0  0  0  0  0  0  0
   -0.6738    0.6082    0.3757 C   0  0  1  0  0  0  0  0  0  0  0  0
   -0.4840    1.8012   -0.7496 C   0  0  0  0  0  0  0  0  0  0  0  0
   -1.7214    2.5323   -0.5717 N   0  0  0  0  0  0  0  0  0  0  0  0
   -1.6884    3.1785    0.7404 C   0  0  0  0  0  0  0  0  0  0  0  0
   -1.9489    3.4809   -1.6418 C   0  0  0  0  0  0  0  0  0  0  0  0
   -1.5964   -0.3538   -0.5206 C   0  0  0  0  0  0  0  0  0  0  0  0
   -1.2946   -0.3531   -1.8172 O   0  0  0  0  0  0  0  0  0  0  0  0
   -1.4813   -1.7479    0.0412 C   0  0  0  0  0  0  0  0  0  0  0  0
   -1.6259   -1.7949    1.5443 C   0  0  0  0  0  0  0  0  0  0  0  0
   -2.6566   -0.8237    2.0602 C   0  0  0  0  0  0  0  0  0  0  0  0
   -3.6296   -0.5080    0.9574 C   0  0  0  0  0  0  0  0  0  0  0  0
   -2.9750    0.2435   -0.1992 C   0  0  0  0  0  0  0  0  0  0  0  0
    1.7157    0.3273    0.9359 C   0  0  0  0  0  0  0  0  0  0  0  0
    2.9725   -0.1627    0.8146 C   0  0  0  0  0  0  0  0  0  0  0  0
  1  2  1  0
  2  3  1  0
  3  4  2  0
  4  5  1  0
  5  6  2  0
  6  7  1  0
  7  8  1  6
  8  9  1  0
  9 10  1  0
  9 11  1  0
  7 12  1  0
 12 13  1  0
 12 14  1  0
 14 15  1  0
 15 16  1  0
 16 17  1  0
 17 18  1  0
  6 19  1  0
 19 20  2  0
 20  3  1  0
 18 12  1  0
M  END
>  <zinc_id>  (1) 
ZINC000000006016

>  <smiles>  (1) 
COc1ccc([C@@H](CN(C)C)C2(O)CCCCC2)cc1

$$$$
