
     RDKit          3D

 19 21  0  0  0  0  0  0  0  0999 V2000
   -3.3284    2.8674   -0.4168 N   0  0  0  0  0  0  0  0  0  0  0  0
   -3.2449    1.4884   -0.3628 C   0  0  0  0  0  0  0  0  0  0  0  0
   -4.3964    0.7314   -0.3499 C   0  0  0  0  0  0  0  0  0  0  0  0
   -4.3806   -0.6468   -0.2969 C   0  0  0  0  0  0  0  0  0  0  0  0
   -3.1485   -1.2657   -0.2560 C   0  0  0  0  0  0  0  0  0  0  0  0
   -1.9648   -0.5217   -0.2680 C   0  0  0  0  0  0  0  0  0  0  0  0
   -2.0024    0.8539   -0.3213 C   0  0  0  0  0  0  0  0  0  0  0  0
   -0.6375    1.4065   -0.3260 C   0  0  0  0  0  0  0  0  0  0  0  0
    0.1891    0.2393   -0.2610 N   0  0  0  0  0  0  0  0  0  0  0  0
    1.7279    0.4445   -0.2346 C   0  0  2  0  0  0  0  0  0  0  0  0
    2.1017   -0.9427   -1.0382 C   0  0  0  0  0  0  0  0  0  0  0  0
    3.6181   -1.0209   -0.9559 C   0  0  0  0  0  0  0  0  0  0  0  0
    4.1727   -0.1863    0.1211 C   0  0  0  0  0  0  0  0  0  0  0  0
    5.2402    0.4948   -0.0735 O   0  0  0  0  0  0  0  0  0  0  0  0
    3.4665   -0.1834    1.3603 N   0  0  0  0  0  0  0  0  0  0  0  0
    2.0328   -0.2039    1.2029 C   0  0  0  0  0  0  0  0  0  0  0  0
    1.2030   -0.6029    1.9449 O   0  0  0  0  0  0  0  0  0  0  0  0
   -0.5550   -0.8911   -0.2305 C   0  0  0  0  0  0  0  0  0  0  0  0
   -0.0935   -2.0610   -0.1786 O   0  0  0  0  0  0  0  0  0  0  0  0
  1  2  1  0
  2  3  2  0
  3  4  1  0
  4  5  2  0
  5  6  1  0
  6  7  2  0
  7  8  1  0
  8  9  1  0
 10  9  1  1
 10 11  1  0
 11 12  1  0
 12 13  1  0
 13 14  2  0
 13 15  1  0
 15 16  1  0
 16 17  2  0
  9 18  1  0
 18 19  2  0
  7  2  1  0
 16 10  1  0
 18  6  1  0
M  END
>  <zinc_id>  (1) 
ZINC000003604264

>  <smiles>  (1) 
Nc1cccc2c1CN([C@@H]1CCC(=O)NC1=O)C2=O

$$$$
