
     RDKit          3D

 24 25  0  0  0  0  0  0  0  0999 V2000
   -5.0956    2.0359   -0.5169 C   0  0  0  0  0  0  0  0  0  0  0  0
   -3.9577    1.7713    0.3890 C   0  0  0  0  0  0  0  0  0  0  0  0
   -3.9011    2.4064    1.6088 C   0  0  0  0  0  0  0  0  0  0  0  0
   -2.8377    2.1787    2.4909 C   0  0  0  0  0  0  0  0  0  0  0  0
   -1.8494    1.2892    2.0822 C   0  0  0  0  0  0  0  0  0  0  0  0
   -1.8799    0.6386    0.8660 C   0  0  0  0  0  0  0  0  0  0  0  0
   -0.8438   -0.2479    0.5209 N   0  0  0  0  0  0  0  0  0  0  0  0
   -0.8340   -0.9375   -0.7172 C   0  0  0  0  0  0  0  0  0  0  0  0
   -1.8209   -0.8061   -1.6806 C   0  0  0  0  0  0  0  0  0  0  0  0
   -1.8148   -1.4723   -2.8806 C   0  0  0  0  0  0  0  0  0  0  0  0
   -0.7958   -2.2972   -3.1352 N   0  0  0  0  0  0  0  0  0  0  0  0
    0.1919   -2.4612   -2.2299 C   0  0  0  0  0  0  0  0  0  0  0  0
    0.2158   -1.8096   -1.0197 C   0  0  0  0  0  0  0  0  0  0  0  0
    1.5143   -2.0521    0.1217 S   0  0  0  0  0  0  0  0  0  0  0  0
    0.8692   -2.4811    1.4322 O   0  0  0  0  0  0  0  0  0  0  0  0
    2.4280   -3.1467   -0.2840 O   0  0  0  0  0  0  0  0  0  0  0  0
    2.3478   -0.5750    0.4677 N   0  0  0  0  0  0  0  0  0  0  0  0
    3.1827   -0.0499   -0.3715 C   0  0  0  0  0  0  0  0  0  0  0  0
    3.3571   -0.7628   -1.5687 O   0  0  0  0  0  0  0  0  0  0  0  0
    3.8736    1.1601   -0.1024 N   0  0  0  0  0  0  0  0  0  0  0  0
    3.7525    1.7506    1.2219 C   0  0  0  0  0  0  0  0  0  0  0  0
    4.5451    3.0266    1.3388 C   0  0  0  0  0  0  0  0  0  0  0  0
    2.3088    1.9283    1.6215 C   0  0  0  0  0  0  0  0  0  0  0  0
   -2.9561    0.9135    0.0538 C   0  0  0  0  0  0  0  0  0  0  0  0
  1  2  1  0
  2  3  2  0
  3  4  1  0
  4  5  2  0
  5  6  1  0
  6  7  1  0
  7  8  1  0
  8  9  2  0
  9 10  1  0
 10 11  2  0
 11 12  1  0
 12 13  2  0
 13 14  1  0
 14 15  2  0
 14 16  2  0
 14 17  1  0
 17 18  2  0
 18 19  1  0
 18 20  1  0
 20 21  1  0
 21 22  1  0
 21 23  1  0
  6 24  2  0
 24  2  1  0
 13  8  1  0
M  END
>  <zinc_id>  (1) 
ZINC000000005823

>  <smiles>  (1) 
Cc1cccc(Nc2ccncc2S(=O)(=O)/N=C(\O)NC(C)C)c1

$$$$
