
     RDKit          3D

 16 16  0  0  0  0  0  0  0  0999 V2000
   -1.1113    0.9179    0.9005 C   0  0  0  0  0  0  0  0  0  0  0  0
   -0.9643    0.3046   -0.6121 C   0  0  2  0  0  0  0  0  0  0  0  0
   -2.2732   -0.5097   -0.6593 N   0  0  0  0  0  0  0  0  0  0  0  0
   -3.4350    0.2268   -0.5512 C   0  0  0  0  0  0  0  0  0  0  0  0
   -3.7238    1.2427   -1.6284 C   0  0  0  0  0  0  0  0  0  0  0  0
   -3.8257    0.7015    0.8340 C   0  0  0  0  0  0  0  0  0  0  0  0
   -4.5272   -0.8313   -0.8572 C   0  0  0  0  0  0  0  0  0  0  0  0
   -0.0261   -0.9016   -0.2205 C   0  0  0  0  0  0  0  0  0  0  0  0
   -0.3922   -2.0403   -0.0499 O   0  0  0  0  0  0  0  0  0  0  0  0
    1.3733   -0.5618   -0.0660 C   0  0  0  0  0  0  0  0  0  0  0  0
    2.2711   -1.5291    0.2765 C   0  0  0  0  0  0  0  0  0  0  0  0
    3.6354   -1.2864    0.4431 C   0  0  0  0  0  0  0  0  0  0  0  0
    4.0896   -0.0228    0.2545 C   0  0  0  0  0  0  0  0  0  0  0  0
    3.2090    0.9782   -0.0921 C   0  0  0  0  0  0  0  0  0  0  0  0
    3.8370    2.5846   -0.3248 Cl  0  0  0  0  0  0  0  0  0  0  0  0
    1.8635    0.7266   -0.2540 C   0  0  0  0  0  0  0  0  0  0  0  0
  2  1  1  1
  2  3  1  0
  3  4  1  0
  4  5  1  0
  4  6  1  0
  4  7  1  0
  2  8  1  0
  8  9  2  0
  8 10  1  0
 10 11  2  0
 11 12  1  0
 12 13  2  0
 13 14  1  0
 14 15  1  0
 14 16  2  0
 16 10  1  0
M  END
>  <zinc_id>  (1) 
ZINC000000020228

>  <smiles>  (1) 
C[C@H](NC(C)(C)C)C(=O)c1cccc(Cl)c1

$$$$
