
     RDKit          3D

 15 15  0  0  0  0  0  0  0  0999 V2000
    4.3992    0.8126   -0.5162 C   0  0  0  0  0  0  0  0  0  0  0  0
    3.7358    0.3824    0.6008 C   0  0  0  0  0  0  0  0  0  0  0  0
    4.5213    0.4801    1.8576 C   0  0  0  0  0  0  0  0  0  0  0  0
    3.0348   -0.8473    0.4039 N   0  0  0  0  0  0  0  0  0  0  0  0
    1.6200   -0.7078    0.7528 C   0  0  0  0  0  0  0  0  0  0  0  0
    0.9773    0.3094   -0.4060 C   0  0  1  0  0  0  0  0  0  0  0  0
    1.2484   -0.6221   -1.5683 O   0  0  0  0  0  0  0  0  0  0  0  0
   -0.5192   -0.0463   -0.1782 C   0  0  0  0  0  0  0  0  0  0  0  0
   -0.9888   -0.5053    1.0186 C   0  0  0  0  0  0  0  0  0  0  0  0
   -2.3450   -0.7274    1.2710 C   0  0  0  0  0  0  0  0  0  0  0  0
   -3.2246   -0.4720    0.2672 C   0  0  0  0  0  0  0  0  0  0  0  0
   -4.5744   -0.7155    0.5337 O   0  0  0  0  0  0  0  0  0  0  0  0
   -2.7783   -0.0157   -0.9291 C   0  0  0  0  0  0  0  0  0  0  0  0
   -3.6889    0.2405   -1.9271 O   0  0  0  0  0  0  0  0  0  0  0  0
   -1.4176    0.2077   -1.1807 C   0  0  0  0  0  0  0  0  0  0  0  0
  1  2  1  0
  2  3  1  0
  2  4  1  0
  4  5  1  0
  5  6  1  0
  6  7  1  6
  6  8  1  0
  8  9  2  0
  9 10  1  0
 10 11  2  0
 11 12  1  0
 11 13  1  0
 13 14  1  0
 13 15  2  0
 15  8  1  0
M  END
>  <zinc_id>  (1) 
ZINC000000056653

>  <smiles>  (1) 
CC(C)NC[C@@H](O)c1ccc(O)c(O)c1

$$$$
