
     RDKit          3D

 21 24  0  0  0  0  0  0  0  0999 V2000
    4.9431   -0.3195    0.6965 C   0  0  0  0  0  0  0  0  0  0  0  0
    4.5842   -1.5503    0.0096 N   0  0  0  0  0  0  0  0  0  0  0  0
    3.6253   -1.2473   -1.0368 C   0  0  0  0  0  0  0  0  0  0  0  0
    2.3293   -0.8247   -0.3352 C   0  0  0  0  0  0  0  0  0  0  0  0
    1.3468   -0.5162   -1.4029 C   0  0  0  0  0  0  0  0  0  0  0  0
    0.0048   -0.0832   -0.9895 C   0  0  1  0  0  0  0  0  0  0  0  0
   -0.8395    0.1850   -2.2515 C   0  0  0  0  0  0  0  0  0  0  0  0
   -2.2386    0.6420   -1.8945 C   0  0  0  0  0  0  0  0  0  0  0  0
   -2.4359    0.7237   -0.3680 C   0  0  1  0  0  0  0  0  0  0  0  0
   -2.0707   -0.6481    0.1114 C   0  0  0  0  0  0  0  0  0  0  0  0
   -2.9334   -1.4419    0.8237 C   0  0  0  0  0  0  0  0  0  0  0  0
   -2.5261   -2.7045    1.2376 C   0  0  0  0  0  0  0  0  0  0  0  0
   -1.2707   -3.1195    0.9208 C   0  0  0  0  0  0  0  0  0  0  0  0
   -0.4164   -2.2957    0.1978 C   0  0  0  0  0  0  0  0  0  0  0  0
   -0.7875   -1.0513   -0.2223 C   0  0  0  0  0  0  0  0  0  0  0  0
   -1.3390    1.6190    0.0801 C   0  0  0  0  0  0  0  0  0  0  0  0
   -1.4938    2.7947    0.7691 C   0  0  0  0  0  0  0  0  0  0  0  0
   -0.3697    3.5501    1.1382 C   0  0  0  0  0  0  0  0  0  0  0  0
    0.9003    3.1388    0.8234 C   0  0  0  0  0  0  0  0  0  0  0  0
    1.0391    1.9478    0.1265 C   0  0  0  0  0  0  0  0  0  0  0  0
   -0.0516    1.2013   -0.2392 C   0  0  0  0  0  0  0  0  0  0  0  0
  1  2  1  0
  2  3  1  0
  3  4  1  0
  4  5  1  0
  6  5  1  6
  6  7  1  0
  7  8  1  0
  9  8  1  6
  9 10  1  0
 10 11  2  0
 11 12  1  0
 12 13  2  0
 13 14  1  0
 14 15  2  0
  9 16  1  0
 16 17  2  0
 17 18  1  0
 18 19  2  0
 19 20  1  0
 20 21  2  0
 15  6  1  0
 21 16  1  0
 21  6  1  0
 15 10  1  0
M  END
>  <zinc_id>  (1) 
ZINC000001530688

>  <smiles>  (1) 
CNCCCC12CCC(c3ccccc31)c1ccccc12

$$$$
