
     RDKit          3D

 15 16  0  0  0  0  0  0  0  0999 V2000
   -2.6528    2.8500   -0.1273 C   0  0  0  0  0  0  0  0  0  0  0  0
   -2.1085    1.4724   -0.2008 C   0  0  0  0  0  0  0  0  0  0  0  0
   -2.9240    0.3580   -0.0826 C   0  0  0  0  0  0  0  0  0  0  0  0
   -2.3112   -0.8858   -0.1661 C   0  0  0  0  0  0  0  0  0  0  0  0
   -3.0600   -1.8888   -0.0576 O   0  0  0  0  0  0  0  0  0  0  0  0
   -0.9932   -1.0409   -0.3523 N   0  0  0  0  0  0  0  0  0  0  0  0
   -0.4576   -2.2856   -0.4250 O   0  0  0  0  0  0  0  0  0  0  0  0
   -0.1842    0.0164   -0.4695 C   0  0  0  0  0  0  0  0  0  0  0  0
    1.2672   -0.0548   -0.6748 C   0  0  0  0  0  0  0  0  0  0  0  0
    1.9143   -1.2599   -0.0872 C   0  0  0  0  0  0  0  0  0  0  0  0
    2.9564   -0.9561    0.9355 C   0  0  0  0  0  0  0  0  0  0  0  0
    3.9726    0.0490    0.4874 C   0  0  0  0  0  0  0  0  0  0  0  0
    3.4204    1.1033   -0.4155 C   0  0  0  0  0  0  0  0  0  0  0  0
    1.9326    1.2421   -0.3057 C   0  0  0  0  0  0  0  0  0  0  0  0
   -0.7721    1.2808   -0.3895 C   0  0  0  0  0  0  0  0  0  0  0  0
  1  2  1  0
  2  3  2  0
  3  4  1  0
  4  5  2  0
  4  6  1  0
  6  7  1  0
  6  8  1  0
  8  9  1  0
  9 10  1  0
 10 11  1  0
 11 12  1  0
 12 13  1  0
 13 14  1  0
  8 15  2  0
 15  2  1  0
 14  9  1  0
M  END
>  <zinc_id>  (1) 
ZINC000000001145

>  <smiles>  (1) 
Cc1cc(C2CCCCC2)n(O)c(=O)c1

$$$$
