
     RDKit          3D

 16 16  0  0  0  0  0  0  0  0999 V2000
    3.2867    1.5452   -1.2955 C   0  0  0  0  0  0  0  0  0  0  0  0
    3.6528    0.1399   -0.9399 C   0  0  0  0  0  0  0  0  0  0  0  0
    2.2278   -0.6223   -0.1215 S   0  0  0  0  0  0  0  0  0  0  0  0
    2.6552   -2.0343    0.1584 O   0  0  0  0  0  0  0  0  0  0  0  0
    1.9698    0.1425    1.1538 O   0  0  0  0  0  0  0  0  0  0  0  0
    0.9215   -0.5722   -1.2615 C   0  0  0  0  0  0  0  0  0  0  0  0
   -0.3806   -1.1189   -0.9450 C   0  0  0  0  0  0  0  0  0  0  0  0
   -1.0361   -0.5563    0.1834 N   0  0  0  0  0  0  0  0  0  0  0  0
   -1.0461   -1.0444    1.4282 C   0  0  0  0  0  0  0  0  0  0  0  0
   -0.4493   -2.3225    1.9641 C   0  0  0  0  0  0  0  0  0  0  0  0
   -1.7534   -0.1762    2.1830 N   0  0  0  0  0  0  0  0  0  0  0  0
   -2.1753    0.8347    1.4095 C   0  0  0  0  0  0  0  0  0  0  0  0
   -1.7341    0.6221    0.1246 C   0  0  0  0  0  0  0  0  0  0  0  0
   -1.9583    1.4447   -1.0148 N   0  0  0  0  0  0  0  0  0  0  0  0
   -1.5057    1.1279   -2.1236 O   0  0  0  0  0  0  0  0  0  0  0  0
   -2.6748    2.5899   -0.9030 O   0  0  0  0  0  0  0  0  0  0  0  0
  1  2  1  0
  2  3  1  0
  3  4  2  0
  3  5  2  0
  3  6  1  0
  6  7  1  0
  7  8  1  0
  8  9  1  0
  9 10  1  0
  9 11  2  0
 11 12  1  0
 12 13  2  0
 13 14  1  0
 14 15  2  0
 14 16  1  0
 13  8  1  0
M  CHG  2  14   1  16  -1
M  END
>  <zinc_id>  (1) 
ZINC000000113446

>  <smiles>  (1) 
CCS(=O)(=O)CCn1c([N+](=O)[O-])cnc1C

$$$$
