
     RDKit          3D

 33 33  0  0  0  0  0  0  0  0999 V2000
   -2.1958   -2.3255   -2.0494 O   0  0  0  0  0  0  0  0  0  0  0  0
   -2.2046   -2.9170   -0.9759 C   0  0  0  0  0  0  0  0  0  0  0  0
   -3.0766   -4.1113   -0.8739 C   0  0  0  0  0  0  0  0  0  0  0  0
   -3.0572   -4.7515    0.3322 O   0  0  0  0  0  0  0  0  0  0  0  0
   -1.4009   -2.4384    0.0813 N   0  0  0  0  0  0  0  0  0  0  0  0
   -1.2755   -3.0487    1.3611 C   0  0  0  0  0  0  0  0  0  0  0  0
   -2.1623   -2.6800    2.4490 C   0  0  0  0  0  0  0  0  0  0  0  0
   -2.1969   -1.3943    2.8921 O   0  0  0  0  0  0  0  0  0  0  0  0
   -0.6331   -1.2599   -0.1395 C   0  0  0  0  0  0  0  0  0  0  0  0
   -1.1901   -0.0256   -0.3591 C   0  0  0  0  0  0  0  0  0  0  0  0
   -3.2744    0.2114   -0.3871 I   0  0  0  0  0  0  0  0  0  0  0  0
   -0.3885    1.0741   -0.5632 C   0  0  0  0  0  0  0  0  0  0  0  0
   -1.0133    2.3949   -0.8001 C   0  0  0  0  0  0  0  0  0  0  0  0
   -0.2155    3.3535   -0.9745 O   0  0  0  0  0  0  0  0  0  0  0  0
   -2.3946    2.5623   -0.8277 N   0  0  0  0  0  0  0  0  0  0  0  0
   -3.1654    3.6263   -1.0072 C   0  0  0  0  0  0  0  0  0  0  0  0
   -3.1821    4.8461   -0.0033 C   0  0  1  0  0  0  0  0  0  0  0  0
   -1.7851    5.3135   -0.1043 O   0  0  0  0  0  0  0  0  0  0  0  0
   -3.7264    5.9378   -1.1299 C   0  0  0  0  0  0  0  0  0  0  0  0
   -5.0763    5.7051   -1.2323 O   0  0  0  0  0  0  0  0  0  0  0  0
    0.9807    0.9580   -0.5510 C   0  0  0  0  0  0  0  0  0  0  0  0
    2.1681    2.6715   -0.8679 I   0  0  0  0  0  0  0  0  0  0  0  0
    1.5880   -0.2682   -0.3332 C   0  0  0  0  0  0  0  0  0  0  0  0
    3.0525   -0.3233   -0.3313 C   0  0  0  0  0  0  0  0  0  0  0  0
    3.7557    0.6925   -0.5140 O   0  0  0  0  0  0  0  0  0  0  0  0
    3.6946   -1.5081   -0.1260 N   0  0  0  0  0  0  0  0  0  0  0  0
    4.9066   -2.0702   -0.0267 C   0  0  0  0  0  0  0  0  0  0  0  0
    5.8815   -1.6079    1.1522 C   0  0  1  0  0  0  0  0  0  0  0  0
    5.9983   -0.1859    0.7387 O   0  0  0  0  0  0  0  0  0  0  0  0
    4.7232   -1.3184    2.2740 C   0  0  0  0  0  0  0  0  0  0  0  0
    4.4268   -2.5461    2.8306 O   0  0  0  0  0  0  0  0  0  0  0  0
    0.7717   -1.3446   -0.1333 C   0  0  0  0  0  0  0  0  0  0  0  0
    1.6670   -3.2221    0.1996 I   0  0  0  0  0  0  0  0  0  0  0  0
  1  2  2  0
  2  3  1  0
  3  4  1  0
  2  5  1  0
  5  6  1  0
  6  7  1  0
  7  8  1  0
  5  9  1  0
  9 10  2  0
 10 11  1  0
 10 12  1  0
 12 13  1  0
 13 14  2  0
 13 15  1  0
 15 16  1  0
 16 17  1  0
 17 18  1  6
 17 19  1  0
 19 20  1  0
 12 21  2  0
 21 22  1  0
 21 23  1  0
 23 24  1  0
 24 25  2  0
 24 26  1  0
 26 27  1  0
 27 28  1  0
 28 29  1  6
 28 30  1  0
 30 31  1  0
 23 32  2  0
 32 33  1  0
 32  9  1  0
M  END
>  <zinc_id>  (1) 
ZINC000008035395

>  <smiles>  (1) 
O=C(NC[C@@H](O)CO)c1c(I)c(C(=O)NC[C@@H](O)CO)c(I)c(N(CCO)C(=O)CO)c1I

$$$$
