
     RDKit          3D

 19 20  0  0  0  0  0  0  0  0999 V2000
   -3.7070   -2.1848   -0.0793 C   0  0  0  0  0  0  0  0  0  0  0  0
   -3.5120   -1.9447   -0.0754 O   0  0  0  0  0  0  0  0  0  0  0  0
   -2.5148   -0.9728   -0.0386 C   0  0  0  0  0  0  0  0  0  0  0  0
   -2.9105    0.3569   -0.1668 C   0  0  0  0  0  0  0  0  0  0  0  0
   -2.0060    1.3993   -0.1441 C   0  0  0  0  0  0  0  0  0  0  0  0
   -2.4259    2.7030   -0.2730 C   0  0  0  0  0  0  0  0  0  0  0  0
   -1.4582    3.6819   -0.2397 C   0  0  0  0  0  0  0  0  0  0  0  0
   -0.1389    3.3066   -0.0811 C   0  0  0  0  0  0  0  0  0  0  0  0
    0.2526    2.0319    0.0430 N   0  0  0  0  0  0  0  0  0  0  0  0
   -0.6795    1.0673    0.0124 C   0  0  0  0  0  0  0  0  0  0  0  0
   -0.2461   -0.2600    0.1442 C   0  0  0  0  0  0  0  0  0  0  0  0
    1.1622   -0.4859    0.3079 N   0  0  0  0  0  0  0  0  0  0  0  0
    1.4913   -2.0006    0.4197 C   0  0  1  0  0  0  0  0  0  0  0  0
    0.9561   -2.3618   -1.0782 C   0  0  0  0  0  0  0  0  0  0  0  0
    3.0487   -1.8284   -0.0443 C   0  0  0  0  0  0  0  0  0  0  0  0
    3.5600   -0.8985    1.0366 C   0  0  0  0  0  0  0  0  0  0  0  0
    4.9821   -0.5255    0.9174 C   0  0  0  0  0  0  0  0  0  0  0  0
    5.3307    0.1548   -0.3016 N   0  0  0  0  0  0  0  0  0  0  0  0
   -1.1847   -1.2388    0.1138 C   0  0  0  0  0  0  0  0  0  0  0  0
  1  2  1  0
  2  3  1  0
  3  4  2  0
  4  5  1  0
  5  6  2  0
  6  7  1  0
  7  8  2  0
  8  9  1  0
  9 10  2  0
 10 11  1  0
 11 12  1  0
 12 13  1  0
 13 14  1  6
 13 15  1  0
 15 16  1  0
 16 17  1  0
 17 18  1  0
 11 19  2  0
 19  3  1  0
 10  5  1  0
M  END
>  <zinc_id>  (1) 
ZINC000001530862

>  <smiles>  (1) 
COc1cc(N[C@@H](C)CCCN)c2ncccc2c1

$$$$
