
     RDKit          3D

 17 17  0  0  0  0  0  0  0  0999 V2000
   -3.0246   -1.5440    0.9637 C   0  0  0  0  0  0  0  0  0  0  0  0
   -2.8469   -1.1189    0.8032 O   0  0  0  0  0  0  0  0  0  0  0  0
   -2.4261    0.1456    0.3687 C   0  0  0  0  0  0  0  0  0  0  0  0
   -3.2724    1.1880    0.4870 C   0  0  0  0  0  0  0  0  0  0  0  0
   -2.8612    2.4305    0.0611 C   0  0  0  0  0  0  0  0  0  0  0  0
   -1.5965    2.5979   -0.4788 C   0  0  0  0  0  0  0  0  0  0  0  0
   -0.7692    1.5144   -0.5807 C   0  0  0  0  0  0  0  0  0  0  0  0
   -1.1375    0.2287   -0.1630 C   0  0  0  0  0  0  0  0  0  0  0  0
   -0.4032   -0.8502   -0.2288 O   0  0  0  0  0  0  0  0  0  0  0  0
    0.3051   -1.8909   -0.2922 C   0  0  0  0  0  0  0  0  0  0  0  0
    1.6809   -1.7257    0.5937 C   0  0  1  0  0  0  0  0  0  0  0  0
    2.0796   -3.2171    0.2905 O   0  0  0  0  0  0  0  0  0  0  0  0
    2.5995   -1.2309   -0.7037 C   0  0  0  0  0  0  0  0  0  0  0  0
    2.4890    0.1677   -0.6632 O   0  0  0  0  0  0  0  0  0  0  0  0
    2.9305    0.8394    0.4592 C   0  0  0  0  0  0  0  0  0  0  0  0
    2.8269    2.2611    0.5203 N   0  0  0  0  0  0  0  0  0  0  0  0
    3.4259    0.2045    1.4338 O   0  0  0  0  0  0  0  0  0  0  0  0
  1  2  1  0
  2  3  1  0
  3  4  2  0
  4  5  1  0
  5  6  2  0
  6  7  1  0
  7  8  2  0
  8  9  1  0
  9 10  1  0
 10 11  1  0
 11 12  1  6
 11 13  1  0
 13 14  1  0
 14 15  1  0
 15 16  1  0
 15 17  2  0
  8  3  1  0
M  END
>  <zinc_id>  (1) 
ZINC000000057341

>  <smiles>  (1) 
COc1ccccc1OC[C@@H](O)COC(N)=O

$$$$
