
     RDKit          3D

 33 35  0  0  0  0  0  0  0  0999 V2000
    9.2523    1.6462   -2.7608 C   0  0  0  0  0  0  0  0  0  0  0  0
    8.4158    0.5967   -2.1691 N   0  0  0  0  0  0  0  0  0  0  0  0
    7.5195    0.8923   -1.1103 C   0  0  0  0  0  0  0  0  0  0  0  0
    7.4538    2.0605   -0.6899 O   0  0  0  0  0  0  0  0  0  0  0  0
    6.6814   -0.1600   -0.5178 C   0  0  0  0  0  0  0  0  0  0  0  0
    5.8191    0.1564    0.5104 C   0  0  0  0  0  0  0  0  0  0  0  0
    5.0212   -0.7874    1.0918 C   0  0  0  0  0  0  0  0  0  0  0  0
    4.1769   -0.3994    2.1219 O   0  0  0  0  0  0  0  0  0  0  0  0
    2.8813    0.0294    1.7531 C   0  0  0  0  0  0  0  0  0  0  0  0
    1.8478   -0.8589    1.6645 C   0  0  0  0  0  0  0  0  0  0  0  0
    0.5882   -0.4075    1.3002 C   0  0  0  0  0  0  0  0  0  0  0  0
    0.3448    0.9150    1.0234 C   0  0  0  0  0  0  0  0  0  0  0  0
   -0.9384    1.3556    0.6554 N   0  0  0  0  0  0  0  0  0  0  0  0
   -2.0681    0.5081    0.5381 C   0  0  0  0  0  0  0  0  0  0  0  0
   -1.8908   -0.7168    0.7835 O   0  0  0  0  0  0  0  0  0  0  0  0
   -3.3550    0.9753    0.1648 N   0  0  0  0  0  0  0  0  0  0  0  0
   -4.4796    0.0908    0.0548 C   0  0  0  0  0  0  0  0  0  0  0  0
   -4.2612   -1.2434    0.3282 C   0  0  0  0  0  0  0  0  0  0  0  0
   -5.3302   -2.1298    0.2313 C   0  0  0  0  0  0  0  0  0  0  0  0
   -6.5581   -1.6216   -0.1354 C   0  0  0  0  0  0  0  0  0  0  0  0
   -7.9009   -2.7379   -0.2567 Cl  0  0  0  0  0  0  0  0  0  0  0  0
   -6.7766   -0.2992   -0.4069 C   0  0  0  0  0  0  0  0  0  0  0  0
   -8.1340    0.1822   -0.7989 C   0  0  0  0  0  0  0  0  0  0  0  0
   -9.0215   -0.1000    0.2200 F   0  0  0  0  0  0  0  0  0  0  0  0
   -8.5255   -0.4697   -1.9323 F   0  0  0  0  0  0  0  0  0  0  0  0
   -8.1171    1.5351   -1.0522 F   0  0  0  0  0  0  0  0  0  0  0  0
   -5.7159    0.5787   -0.3105 C   0  0  0  0  0  0  0  0  0  0  0  0
    1.3930    1.7945    1.1168 C   0  0  0  0  0  0  0  0  0  0  0  0
    1.2279    3.1154    0.8583 F   0  0  0  0  0  0  0  0  0  0  0  0
    2.6584    1.3604    1.4796 C   0  0  0  0  0  0  0  0  0  0  0  0
    5.0908   -2.0802    0.6298 C   0  0  0  0  0  0  0  0  0  0  0  0
    5.9630   -2.3640   -0.3994 C   0  0  0  0  0  0  0  0  0  0  0  0
    6.7377   -1.4172   -0.9548 N   0  0  0  0  0  0  0  0  0  0  0  0
  1  2  1  0
  2  3  1  0
  3  4  2  0
  3  5  1  0
  5  6  2  0
  6  7  1  0
  7  8  1  0
  8  9  1  0
  9 10  2  0
 10 11  1  0
 11 12  2  0
 12 13  1  0
 13 14  1  0
 14 15  2  0
 14 16  1  0
 16 17  1  0
 17 18  2  0
 18 19  1  0
 19 20  2  0
 20 21  1  0
 20 22  1  0
 22 23  1  0
 23 24  1  0
 23 25  1  0
 23 26  1  0
 22 27  2  0
 12 28  1  0
 28 29  1  0
 28 30  2  0
  7 31  2  0
 31 32  1  0
 32 33  2  0
 33  5  1  0
 30  9  1  0
 27 17  1  0
M  END
>  <zinc_id>  (1) 
ZINC000006745272

>  <smiles>  (1) 
CNC(=O)c1cc(Oc2ccc(NC(=O)Nc3ccc(Cl)c(C(F)(F)F)c3)c(F)c2)ccn1

$$$$
