
     RDKit          3D

 24 24  0  0  0  0  0  0  0  0999 V2000
   -5.2945    3.8097   -0.7726 C   0  0  0  0  0  0  0  0  0  0  0  0
   -5.9455    3.0794    0.0963 C   0  0  0  0  0  0  0  0  0  0  0  0
   -5.7859    1.5885   -0.0507 C   0  0  0  0  0  0  0  0  0  0  0  0
   -4.3841    1.1783    0.0862 C   0  0  0  0  0  0  0  0  0  0  0  0
   -3.5197    2.0614    0.3100 O   0  0  0  0  0  0  0  0  0  0  0  0
   -3.9664   -0.1648   -0.0227 N   0  0  0  0  0  0  0  0  0  0  0  0
   -2.5941   -0.5178    0.1154 C   0  0  0  0  0  0  0  0  0  0  0  0
   -1.6784    0.4725    0.3732 C   0  0  0  0  0  0  0  0  0  0  0  0
   -0.3616    0.1186    0.5013 C   0  0  0  0  0  0  0  0  0  0  0  0
    0.1440   -1.1543    0.3944 C   0  0  0  0  0  0  0  0  0  0  0  0
    1.4007   -1.5548    0.5102 O   0  0  0  0  0  0  0  0  0  0  0  0
    2.6633   -1.2491    0.7181 C   0  0  0  0  0  0  0  0  0  0  0  0
    3.2951   -0.2582   -0.4131 C   0  0  1  0  0  0  0  0  0  0  0  0
    2.3735    0.9051   -0.1193 O   0  0  0  0  0  0  0  0  0  0  0  0
    4.5073    0.2852    0.6155 C   0  0  0  0  0  0  0  0  0  0  0  0
    4.9092    1.5371    0.1704 N   0  0  0  0  0  0  0  0  0  0  0  0
    5.5898    1.6771   -1.0495 C   0  0  0  0  0  0  0  0  0  0  0  0
    6.9108    1.0163   -1.1785 C   0  0  0  0  0  0  0  0  0  0  0  0
    5.6066    3.1485   -1.4313 C   0  0  0  0  0  0  0  0  0  0  0  0
   -0.8199   -2.1549    0.1279 C   0  0  0  0  0  0  0  0  0  0  0  0
   -0.3803   -3.5545   -0.0057 C   0  0  0  0  0  0  0  0  0  0  0  0
   -1.3648   -4.6205   -0.2843 C   0  0  0  0  0  0  0  0  0  0  0  0
    0.8306   -3.8422    0.1162 O   0  0  0  0  0  0  0  0  0  0  0  0
   -2.1360   -1.8065   -0.0004 C   0  0  0  0  0  0  0  0  0  0  0  0
  1  2  1  0
  2  3  1  0
  3  4  1  0
  4  5  2  0
  4  6  1  0
  6  7  1  0
  7  8  2  0
  8  9  1  0
  9 10  2  0
 10 11  1  0
 11 12  1  0
 12 13  1  0
 13 14  1  1
 13 15  1  0
 15 16  1  0
 16 17  1  0
 17 18  1  0
 17 19  1  0
 10 20  1  0
 20 21  1  0
 21 22  1  0
 21 23  2  0
 20 24  2  0
 24  7  1  0
M  END
>  <zinc_id>  (1) 
ZINC000000156792

>  <smiles>  (1) 
CCCC(=O)Nc1ccc(OC[C@@H](O)CNC(C)C)c(C(C)=O)c1

$$$$
