
     RDKit          3D

 14 15  0  0  0  0  0  0  0  0999 V2000
    3.5684   -1.7883   -0.5765 C   0  0  0  0  0  0  0  0  0  0  0  0
    2.6579   -0.6525   -0.3021 C   0  0  0  0  0  0  0  0  0  0  0  0
    3.1069    0.6307   -0.0865 C   0  0  0  0  0  0  0  0  0  0  0  0
    2.2042    1.6716    0.1692 C   0  0  0  0  0  0  0  0  0  0  0  0
    0.8664    1.3299    0.1895 C   0  0  0  0  0  0  0  0  0  0  0  0
    0.0244    2.2389    0.4163 O   0  0  0  0  0  0  0  0  0  0  0  0
    0.4314    0.0803   -0.0206 N   0  0  0  0  0  0  0  0  0  0  0  0
   -0.9863   -0.1553    0.0250 C   0  0  0  0  0  0  0  0  0  0  0  0
   -1.4378   -1.4364    0.2679 C   0  0  0  0  0  0  0  0  0  0  0  0
   -2.8055   -1.6973    0.3183 C   0  0  0  0  0  0  0  0  0  0  0  0
   -3.7386   -0.7105    0.1320 C   0  0  0  0  0  0  0  0  0  0  0  0
   -3.2847    0.5653   -0.1099 C   0  0  0  0  0  0  0  0  0  0  0  0
   -1.9108    0.8236   -0.1598 C   0  0  0  0  0  0  0  0  0  0  0  0
    1.3041   -0.9001   -0.2629 C   0  0  0  0  0  0  0  0  0  0  0  0
  1  2  1  0
  2  3  1  0
  3  4  2  0
  4  5  1  0
  5  6  2  0
  5  7  1  0
  7  8  1  0
  8  9  2  0
  9 10  1  0
 10 11  2  0
 11 12  1  0
 12 13  2  0
  7 14  1  0
 14  2  2  0
 13  8  1  0
M  END
>  <zinc_id>  (1) 
ZINC000000001958

>  <smiles>  (1) 
Cc1ccc(=O)n(-c2ccccc2)c1

$$$$
