
     RDKit          3D

 12 12  0  0  0  0  0  0  0  0999 V2000
    2.6651   -1.0987    1.4808 N   0  0  0  0  0  0  0  0  0  0  0  0
    1.7468   -0.8025    0.2180 C   0  0  1  0  0  0  0  0  0  0  0  0
    0.4208   -0.7161    1.1545 C   0  0  0  0  0  0  0  0  0  0  0  0
   -0.7372   -0.4463    0.2832 C   0  0  0  0  0  0  0  0  0  0  0  0
   -1.4622   -1.4477   -0.3419 C   0  0  0  0  0  0  0  0  0  0  0  0
   -2.5540   -1.1453   -1.1321 C   0  0  0  0  0  0  0  0  0  0  0  0
   -2.9667    0.1626   -1.3312 C   0  0  0  0  0  0  0  0  0  0  0  0
   -2.2470    1.1608   -0.7103 C   0  0  0  0  0  0  0  0  0  0  0  0
   -1.1574    0.8447    0.0772 C   0  0  0  0  0  0  0  0  0  0  0  0
    2.0537    0.7447    0.1908 C   0  0  0  0  0  0  0  0  0  0  0  0
    2.6107    1.3570    1.0729 O   0  0  0  0  0  0  0  0  0  0  0  0
    1.6276    1.3869   -0.9620 O   0  0  0  0  0  0  0  0  0  0  0  0
  2  1  1  1
  2  3  1  0
  3  4  1  0
  4  5  2  0
  5  6  1  0
  6  7  2  0
  7  8  1  0
  8  9  2  0
  2 10  1  0
 10 11  2  0
 10 12  1  0
  9  4  1  0
M  END
>  <zinc_id>  (1) 
ZINC000000105196

>  <smiles>  (1) 
N[C@@H](Cc1ccccc1)C(=O)O

$$$$
