
     RDKit          3D

 16 19  0  0  0  0  0  0  0  0999 V2000
    3.9066    0.7386    0.2685 C   0  0  0  0  0  0  0  0  0  0  0  0
    3.9519   -0.6360    0.0874 C   0  0  0  0  0  0  0  0  0  0  0  0
    2.8073   -1.2580   -0.1510 N   0  0  0  0  0  0  0  0  0  0  0  0
    1.6446   -0.5629   -0.2125 C   0  0  0  0  0  0  0  0  0  0  0  0
    0.4626   -1.2674   -0.4672 C   0  0  0  0  0  0  0  0  0  0  0  0
   -0.6964   -0.5628   -0.5269 C   0  0  0  0  0  0  0  0  0  0  0  0
   -0.7622    0.6875   -0.3653 C   0  0  0  0  0  0  0  0  0  0  0  0
    0.3684    1.4316   -0.1122 C   0  0  0  0  0  0  0  0  0  0  0  0
    1.5884    0.7839   -0.0366 C   0  0  0  0  0  0  0  0  0  0  0  0
    2.7490    1.4211    0.2060 N   0  0  0  0  0  0  0  0  0  0  0  0
   -2.2209    1.2634   -0.4792 C   0  0  1  0  0  0  0  0  0  0  0  0
   -2.8756    0.0383   -1.3293 C   0  0  0  0  0  0  0  0  0  0  0  0
   -2.0530   -1.2770   -0.8105 C   0  0  2  0  0  0  0  0  0  0  0  0
   -2.5854   -1.3175    0.7282 C   0  0  0  0  0  0  0  0  0  0  0  0
   -3.5766   -0.3084    0.9299 N   0  0  0  0  0  0  0  0  0  0  0  0
   -2.7088    0.8258    1.0067 C   0  0  0  0  0  0  0  0  0  0  0  0
  1  2  2  0
  2  3  1  0
  3  4  2  0
  4  5  1  0
  5  6  2  0
  6  7  1  0
  7  8  2  0
  8  9  1  0
  9 10  2  0
  7 11  1  0
 11 12  1  0
 12 13  1  0
 13 14  1  1
 14 15  1  0
 15 16  1  0
 10  1  1  0
 11 16  1  1
  9  4  1  0
 13  6  1  0
M  END
>  <zinc_id>  (1) 
ZINC000001481833

>  <smiles>  (1) 
c1cnc2cc3c(cc2n1)[C@H]1CNC[C@@H]3C1

$$$$
