
     RDKit          3D

 21 22  0  0  0  0  0  0  0  0999 V2000
    5.2612   -0.7069    0.3620 C   0  0  0  0  0  0  0  0  0  0  0  0
    4.5871   -0.0298   -0.4986 C   0  0  0  0  0  0  0  0  0  0  0  0
    4.5091   -0.8102   -1.7880 C   0  0  0  0  0  0  0  0  0  0  0  0
    5.3719    1.2608   -0.8255 C   0  0  0  0  0  0  0  0  0  0  0  0
    3.2843    0.4088   -0.1183 N   0  0  0  0  0  0  0  0  0  0  0  0
    2.3280   -0.5924    0.1777 C   0  0  0  0  0  0  0  0  0  0  0  0
    1.9477   -1.3567   -1.2096 C   0  0  1  0  0  0  0  0  0  0  0  0
    0.9914   -2.3109   -0.5247 O   0  0  0  0  0  0  0  0  0  0  0  0
    0.8015   -0.2710   -1.6251 C   0  0  0  0  0  0  0  0  0  0  0  0
    0.1077    0.2732   -0.7816 O   0  0  0  0  0  0  0  0  0  0  0  0
   -0.5616    0.9068    0.1813 C   0  0  0  0  0  0  0  0  0  0  0  0
    0.0975    1.6549    1.1170 N   0  0  0  0  0  0  0  0  0  0  0  0
   -1.0875    2.2586    2.1107 S   0  0  0  0  0  0  0  0  0  0  0  0
   -2.4168    1.5791    1.3624 N   0  0  0  0  0  0  0  0  0  0  0  0
   -1.9295    0.8948    0.3552 C   0  0  0  0  0  0  0  0  0  0  0  0
   -2.7820    0.1644   -0.5272 N   0  0  0  0  0  0  0  0  0  0  0  0
   -2.6169   -1.2513   -0.6554 C   0  0  0  0  0  0  0  0  0  0  0  0
   -3.9738   -1.9131   -0.7465 C   0  0  0  0  0  0  0  0  0  0  0  0
   -5.0181   -1.0821   -0.4073 O   0  0  0  0  0  0  0  0  0  0  0  0
   -5.1046    0.0964   -1.1106 C   0  0  0  0  0  0  0  0  0  0  0  0
   -3.7968    0.8266   -1.2713 C   0  0  0  0  0  0  0  0  0  0  0  0
  1  2  1  0
  2  3  1  0
  2  4  1  0
  2  5  1  0
  5  6  1  0
  6  7  1  0
  7  8  1  1
  7  9  1  0
  9 10  1  0
 10 11  1  0
 11 12  2  0
 12 13  1  0
 13 14  1  0
 14 15  2  0
 15 16  1  0
 16 17  1  0
 17 18  1  0
 18 19  1  0
 19 20  1  0
 20 21  1  0
 15 11  1  0
 21 16  1  0
M  END
>  <zinc_id>  (1) 
ZINC000000403609

>  <smiles>  (1) 
CC(C)(C)NC[C@@H](O)COc1nsnc1N1CCOCC1

$$$$
