
     RDKit          3D

  9  8  0  0  0  0  0  0  0  0999 V2000
    0.5834   -1.2221   -0.7539 C   0  0  0  0  0  0  0  0  0  0  0  0
    0.8319   -0.6451   -0.2414 C   0  0  0  0  0  0  0  0  0  0  0  0
    1.8718   -1.2655    0.7127 C   0  0  0  0  0  0  0  0  0  0  0  0
    1.4323    0.9730   -0.6602 S   0  0  0  0  0  0  0  0  0  0  0  0
   -0.4792   -0.4886    0.7819 C   0  0  1  0  0  0  0  0  0  0  0  0
    0.1568    0.6306    1.6773 N   0  0  0  0  0  0  0  0  0  0  0  0
   -1.2477    0.4986   -0.2181 C   0  0  0  0  0  0  0  0  0  0  0  0
   -1.1899    1.7046   -0.0980 O   0  0  0  0  0  0  0  0  0  0  0  0
   -1.9594   -0.1854   -1.2003 O   0  0  0  0  0  0  0  0  0  0  0  0
  1  2  1  0
  2  3  1  0
  2  4  1  0
  2  5  1  0
  5  6  1  1
  5  7  1  0
  7  8  2  0
  7  9  1  0
M  END
>  <zinc_id>  (1) 
ZINC000000114127

>  <smiles>  (1) 
CC(C)(S)[C@@H](N)C(=O)O

$$$$
