
     RDKit          3D

 15 15  0  0  0  0  0  0  0  0999 V2000
    3.4236    2.3254    0.8395 C   0  0  0  0  0  0  0  0  0  0  0  0
    3.0204    1.1722   -0.0409 C   0  0  0  0  0  0  0  0  0  0  0  0
    4.2078    0.3887   -0.5402 C   0  0  0  0  0  0  0  0  0  0  0  0
    2.1062    0.3280    0.7044 N   0  0  0  0  0  0  0  0  0  0  0  0
    1.7448   -0.7769   -0.1946 C   0  0  0  0  0  0  0  0  0  0  0  0
    0.7085   -1.6392    0.7965 C   0  0  2  0  0  0  0  0  0  0  0  0
    0.4708   -2.7048   -0.2913 O   0  0  0  0  0  0  0  0  0  0  0  0
   -0.5913   -0.7864    0.4269 C   0  0  0  0  0  0  0  0  0  0  0  0
   -1.7469   -1.4507    0.2241 C   0  0  0  0  0  0  0  0  0  0  0  0
   -2.8890   -0.7008   -0.0893 C   0  0  0  0  0  0  0  0  0  0  0  0
   -4.0874   -1.3719   -0.3011 O   0  0  0  0  0  0  0  0  0  0  0  0
   -2.8038    0.6673   -0.1803 C   0  0  0  0  0  0  0  0  0  0  0  0
   -1.6190    1.3119    0.0305 C   0  0  0  0  0  0  0  0  0  0  0  0
   -1.4440    2.6862   -0.0411 O   0  0  0  0  0  0  0  0  0  0  0  0
   -0.5007    0.5510    0.3395 C   0  0  0  0  0  0  0  0  0  0  0  0
  1  2  1  0
  2  3  1  0
  2  4  1  0
  4  5  1  0
  5  6  1  0
  6  7  1  6
  6  8  1  0
  8  9  2  0
  9 10  1  0
 10 11  1  0
 10 12  2  0
 12 13  1  0
 13 14  1  0
 13 15  2  0
 15  8  1  0
M  END
>  <zinc_id>  (1) 
ZINC000000002273

>  <smiles>  (1) 
CC(C)NC[C@H](O)c1cc(O)cc(O)c1

$$$$
