
     RDKit          3D

 18 19  0  0  0  0  0  0  0  0999 V2000
   -0.7056   -2.0255    1.0723 C   0  0  0  0  0  0  0  0  0  0  0  0
    0.1656   -0.9002    0.6445 C   0  0  0  0  0  0  0  0  0  0  0  0
    1.4750   -1.1535    0.2409 C   0  0  0  0  0  0  0  0  0  0  0  0
    2.2962   -0.1032   -0.1839 C   0  0  0  0  0  0  0  0  0  0  0  0
    3.7112   -0.4102   -0.5673 C   0  0  0  0  0  0  0  0  0  0  0  0
    3.9557   -1.8906   -0.6690 C   0  0  0  0  0  0  0  0  0  0  0  0
    4.1139    0.2293   -1.8622 C   0  0  0  0  0  0  0  0  0  0  0  0
    4.6233    0.1277    0.5393 C   0  0  0  0  0  0  0  0  0  0  0  0
    1.7605    1.1424   -0.1853 C   0  0  0  0  0  0  0  0  0  0  0  0
    0.4600    1.3995    0.2131 C   0  0  0  0  0  0  0  0  0  0  0  0
   -0.0665    2.7829    0.1942 C   0  0  0  0  0  0  0  0  0  0  0  0
   -0.3663    0.3564    0.6458 C   0  0  0  0  0  0  0  0  0  0  0  0
   -1.6799    0.6348    1.1612 C   0  0  0  0  0  0  0  0  0  0  0  0
   -2.8825    0.2417    0.4309 C   0  0  0  0  0  0  0  0  0  0  0  0
   -3.2104    0.4913   -0.7980 N   0  0  0  0  0  0  0  0  0  0  0  0
   -4.5204   -0.1059   -1.1072 C   0  0  0  0  0  0  0  0  0  0  0  0
   -5.1770   -0.2799    0.2592 C   0  0  0  0  0  0  0  0  0  0  0  0
   -3.9528   -0.5372    1.0398 N   0  0  0  0  0  0  0  0  0  0  0  0
  1  2  1  0
  2  3  2  0
  3  4  1  0
  4  5  1  0
  5  6  1  0
  5  7  1  0
  5  8  1  0
  4  9  2  0
  9 10  1  0
 10 11  1  0
 10 12  2  0
 12 13  1  0
 13 14  1  0
 14 15  2  0
 15 16  1  0
 16 17  1  0
 17 18  1  0
 12  2  1  0
 18 14  1  0
M  END
>  <zinc_id>  (1) 
ZINC000000057534

>  <smiles>  (1) 
Cc1cc(C(C)(C)C)cc(C)c1CC1=NCCN1

$$$$
