
     RDKit          3D

 22 25  0  0  0  0  0  0  0  0999 V2000
    4.7737   -0.0502    2.0977 C   0  0  0  0  0  0  0  0  0  0  0  0
    4.5763    0.1391    0.6391 C   0  0  0  0  0  0  0  0  0  0  0  0
    5.4638    0.7676   -0.1396 N   0  0  0  0  0  0  0  0  0  0  0  0
    5.0089    0.7827   -1.4124 C   0  0  0  0  0  0  0  0  0  0  0  0
    3.7957    0.1263   -1.3535 C   0  0  0  0  0  0  0  0  0  0  0  0
    3.5334   -0.2671   -0.0937 N   0  0  0  0  0  0  0  0  0  0  0  0
    2.3685   -0.9644    0.2954 C   0  0  0  0  0  0  0  0  0  0  0  0
    1.2144    0.1044    0.7132 C   0  0  1  0  0  0  0  0  0  0  0  0
    1.1421    0.8531   -0.7353 C   0  0  0  0  0  0  0  0  0  0  0  0
   -0.0889    1.6480   -0.8000 C   0  0  0  0  0  0  0  0  0  0  0  0
   -1.3332    0.9496   -0.4680 C   0  0  0  0  0  0  0  0  0  0  0  0
   -1.2651   -0.2655    0.1360 C   0  0  0  0  0  0  0  0  0  0  0  0
   -2.5966   -0.6784    0.3201 C   0  0  0  0  0  0  0  0  0  0  0  0
   -3.1188   -1.8188    0.8768 C   0  0  0  0  0  0  0  0  0  0  0  0
   -4.4916   -1.9124    0.9011 C   0  0  0  0  0  0  0  0  0  0  0  0
   -5.2795   -0.9136    0.3935 C   0  0  0  0  0  0  0  0  0  0  0  0
   -4.7419    0.2200   -0.1596 C   0  0  0  0  0  0  0  0  0  0  0  0
   -3.3763    0.3334   -0.1939 C   0  0  0  0  0  0  0  0  0  0  0  0
   -2.6035    1.3293   -0.6760 N   0  0  0  0  0  0  0  0  0  0  0  0
   -3.0933    2.5499   -1.2890 C   0  0  0  0  0  0  0  0  0  0  0  0
   -0.0002   -0.8500    0.4469 C   0  0  0  0  0  0  0  0  0  0  0  0
    0.1121   -2.0829    0.5013 O   0  0  0  0  0  0  0  0  0  0  0  0
  1  2  1  0
  2  3  2  0
  3  4  1  0
  4  5  2  0
  5  6  1  0
  6  7  1  0
  8  7  1  6
  8  9  1  0
  9 10  1  0
 10 11  1  0
 11 12  2  0
 12 13  1  0
 13 14  2  0
 14 15  1  0
 15 16  2  0
 16 17  1  0
 17 18  2  0
 18 19  1  0
 19 20  1  0
 12 21  1  0
 21 22  2  0
  6  2  1  0
 21  8  1  0
 19 11  1  0
 18 13  1  0
M  END
>  <zinc_id>  (1) 
ZINC000000004448

>  <smiles>  (1) 
Cc1nccn1C[C@H]1CCc2c(c3ccccc3n2C)C1=O

$$$$
