
     RDKit          3D

 11 11  0  0  0  0  0  0  0  0999 V2000
    3.1850    0.1552    1.1915 C   0  0  0  0  0  0  0  0  0  0  0  0
    3.1147   -0.7348    0.3007 N   0  0  0  0  0  0  0  0  0  0  0  0
    1.7166   -0.6632   -0.4172 C   0  0  2  0  0  0  0  0  0  0  0  0
    1.9602    0.8696   -0.9893 C   0  0  0  0  0  0  0  0  0  0  0  0
    0.9023   -0.1462    0.9171 C   0  0  0  0  0  0  0  0  0  0  0  0
   -0.4942   -0.0210    0.3953 C   0  0  0  0  0  0  0  0  0  0  0  0
   -0.9537    1.1525   -0.1612 C   0  0  0  0  0  0  0  0  0  0  0  0
   -2.2348    1.2721   -0.6418 C   0  0  0  0  0  0  0  0  0  0  0  0
   -3.1285    0.1990   -0.5849 C   0  0  0  0  0  0  0  0  0  0  0  0
   -2.6829   -0.9851   -0.0309 C   0  0  0  0  0  0  0  0  0  0  0  0
   -1.3847   -1.0984    0.4541 C   0  0  0  0  0  0  0  0  0  0  0  0
  1  2  1  0
  2  3  1  0
  3  4  1  6
  3  5  1  0
  5  6  1  0
  6  7  2  0
  7  8  1  0
  8  9  2  0
  9 10  1  0
 10 11  2  0
 11  6  1  0
M  END
>  <zinc_id>  (1) 
ZINC000008466459

>  <smiles>  (1) 
CN[C@H](C)Cc1ccccc1

$$$$
