
     RDKit          3D

 19 21  0  0  0  0  0  0  0  0999 V2000
   -1.4662   -1.9240   -2.8100 C   0  0  0  0  0  0  0  0  0  0  0  0
   -2.1748   -1.1339   -1.8461 N   0  0  0  0  0  0  0  0  0  0  0  0
   -3.3415   -0.4887   -1.9940 C   0  0  0  0  0  0  0  0  0  0  0  0
   -3.6862    0.1453   -0.8642 N   0  0  0  0  0  0  0  0  0  0  0  0
   -2.7186   -0.0952    0.0384 C   0  0  0  0  0  0  0  0  0  0  0  0
   -2.6697    0.3874    1.3934 N   0  0  0  0  0  0  0  0  0  0  0  0
   -1.5916    0.6341    1.9633 O   0  0  0  0  0  0  0  0  0  0  0  0
   -3.8491    0.5748    2.0600 O   0  0  0  0  0  0  0  0  0  0  0  0
   -1.7832   -0.8930   -0.5855 C   0  0  0  0  0  0  0  0  0  0  0  0
   -0.3014   -1.4808    0.2154 S   0  0  0  0  0  0  0  0  0  0  0  0
    1.0252   -0.3134   -0.0407 C   0  0  0  0  0  0  0  0  0  0  0  0
    0.8626    0.8293   -0.7474 N   0  0  0  0  0  0  0  0  0  0  0  0
    1.8977    1.6754   -0.9103 C   0  0  0  0  0  0  0  0  0  0  0  0
    3.1123    1.4198   -0.3846 N   0  0  0  0  0  0  0  0  0  0  0  0
    3.3418    0.3195    0.3186 C   0  0  0  0  0  0  0  0  0  0  0  0
    4.3946   -0.2341    0.9650 N   0  0  0  0  0  0  0  0  0  0  0  0
    3.9870   -1.4089    1.5122 C   0  0  0  0  0  0  0  0  0  0  0  0
    2.6874   -1.6171    1.2263 N   0  0  0  0  0  0  0  0  0  0  0  0
    2.2737   -0.5596    0.4901 C   0  0  0  0  0  0  0  0  0  0  0  0
  1  2  1  0
  2  3  1  0
  3  4  2  0
  4  5  1  0
  5  6  1  0
  6  7  2  0
  6  8  1  0
  5  9  2  0
  9 10  1  0
 10 11  1  0
 11 12  2  0
 12 13  1  0
 13 14  2  0
 14 15  1  0
 15 16  1  0
 16 17  2  0
 17 18  1  0
 18 19  1  0
  9  2  1  0
 19 11  1  0
 19 15  2  0
M  CHG  2   6   1   8  -1
M  END
>  <zinc_id>  (1) 
ZINC000004258316

>  <smiles>  (1) 
Cn1cnc([N+](=O)[O-])c1Sc1ncnc2nc[nH]c12

$$$$
