
     RDKit          3D

 11 10  0  0  0  0  0  0  0  0999 V2000
    0.3720   -1.8682    0.7596 C   0  0  0  0  0  0  0  0  0  0  0  0
    0.1126   -0.7211   -0.2243 C   0  0  0  0  0  0  0  0  0  0  0  0
    0.2459   -1.2969   -1.5033 O   0  0  0  0  0  0  0  0  0  0  0  0
   -1.5104   -0.0139    0.0379 P   0  0  0  0  0  0  0  0  0  0  0  0
   -2.3815   -0.3076   -1.1504 O   0  0  0  0  0  0  0  0  0  0  0  0
   -2.2188   -0.6833    1.4408 O   0  0  0  0  0  0  0  0  0  0  0  0
   -1.4809    1.6524    0.2621 O   0  0  0  0  0  0  0  0  0  0  0  0
    1.4269    0.5021    0.0019 P   0  0  0  0  0  0  0  0  0  0  0  0
    2.5398    0.3004   -1.0124 O   0  0  0  0  0  0  0  0  0  0  0  0
    2.0701    0.3570    1.5720 O   0  0  0  0  0  0  0  0  0  0  0  0
    0.8243    2.0791   -0.1838 O   0  0  0  0  0  0  0  0  0  0  0  0
  1  2  1  0
  2  3  1  0
  2  4  1  0
  4  5  2  0
  4  6  1  0
  4  7  1  0
  2  8  1  0
  8  9  2  0
  8 10  1  0
  8 11  1  0
M  END
>  <zinc_id>  (1) 
ZINC000003830813

>  <smiles>  (1) 
CC(O)(P(=O)(O)O)P(=O)(O)O

$$$$
