
     RDKit          3D

 22 23  0  0  0  0  0  0  0  0999 V2000
   -4.0193    3.2807   -1.1799 C   0  0  0  0  0  0  0  0  0  0  0  0
   -2.8650    3.4155   -0.4416 N   0  0  0  0  0  0  0  0  0  0  0  0
   -1.7341    2.8395   -1.1457 C   0  0  0  0  0  0  0  0  0  0  0  0
   -1.9824    1.3309   -1.2269 C   0  0  0  0  0  0  0  0  0  0  0  0
   -2.0400    0.7365    0.2052 C   0  0  2  0  0  0  0  0  0  0  0  0
   -0.8173    1.0534    0.8269 O   0  0  0  0  0  0  0  0  0  0  0  0
    0.4776    0.6577    0.5779 C   0  0  0  0  0  0  0  0  0  0  0  0
    0.8803   -0.0325   -0.5703 C   0  0  0  0  0  0  0  0  0  0  0  0
    2.2455   -0.3651   -0.7341 C   0  0  0  0  0  0  0  0  0  0  0  0
    3.2270   -0.0887    0.1482 C   0  0  0  0  0  0  0  0  0  0  0  0
    4.6472   -0.4499   -0.0655 C   0  0  0  0  0  0  0  0  0  0  0  0
    5.0339   -1.4331    0.9077 F   0  0  0  0  0  0  0  0  0  0  0  0
    5.5547    0.6119    0.0779 F   0  0  0  0  0  0  0  0  0  0  0  0
    4.8509   -1.0787   -1.3074 F   0  0  0  0  0  0  0  0  0  0  0  0
    2.8037    0.5974    1.3243 C   0  0  0  0  0  0  0  0  0  0  0  0
    1.4873    0.9241    1.4604 C   0  0  0  0  0  0  0  0  0  0  0  0
   -2.3868   -0.7135    0.1473 C   0  0  0  0  0  0  0  0  0  0  0  0
   -3.7964   -0.9243    0.2352 C   0  0  0  0  0  0  0  0  0  0  0  0
   -4.3118   -2.1719    0.2794 C   0  0  0  0  0  0  0  0  0  0  0  0
   -3.4684   -3.2907    0.2267 C   0  0  0  0  0  0  0  0  0  0  0  0
   -2.1233   -3.0927    0.1437 C   0  0  0  0  0  0  0  0  0  0  0  0
   -1.6635   -1.8064    0.1106 C   0  0  0  0  0  0  0  0  0  0  0  0
  1  2  1  0
  2  3  1  0
  3  4  1  0
  5  4  1  6
  5  6  1  0
  6  7  1  0
  7  8  2  0
  8  9  1  0
  9 10  2  0
 10 11  1  0
 11 12  1  0
 11 13  1  0
 11 14  1  0
 10 15  1  0
 15 16  2  0
  5 17  1  0
 17 18  2  0
 18 19  1  0
 19 20  2  0
 20 21  1  0
 21 22  2  0
 16  7  1  0
 22 17  1  0
M  END
>  <zinc_id>  (1) 
ZINC000001530637

>  <smiles>  (1) 
CNCC[C@H](Oc1ccc(C(F)(F)F)cc1)c1ccccc1

$$$$
