
     RDKit          3D

 25 26  0  0  0  0  0  0  0  0999 V2000
   -6.8566    0.2117   -2.0288 N   0  0  0  0  0  0  0  0  0  0  0  0
   -6.8875   -0.2295   -0.8339 C   0  0  0  0  0  0  0  0  0  0  0  0
   -8.0443   -0.8503   -0.3296 N   0  0  0  0  0  0  0  0  0  0  0  0
   -5.7250   -0.0990    0.0319 C   0  0  0  0  0  0  0  0  0  0  0  0
   -4.5663    0.5056   -0.4254 C   0  0  0  0  0  0  0  0  0  0  0  0
   -3.4945    0.6152    0.4029 C   0  0  0  0  0  0  0  0  0  0  0  0
   -3.5011    0.1490    1.6931 C   0  0  0  0  0  0  0  0  0  0  0  0
   -2.3740    0.2960    2.4757 O   0  0  0  0  0  0  0  0  0  0  0  0
   -1.2292    0.9225    1.9427 C   0  0  0  0  0  0  0  0  0  0  0  0
   -0.7214    0.1531    0.7238 C   0  0  0  0  0  0  0  0  0  0  0  0
   -0.3775   -1.2518    1.1741 C   0  0  0  0  0  0  0  0  0  0  0  0
    0.7010   -1.2273    2.2509 C   0  0  0  0  0  0  0  0  0  0  0  0
    1.9103   -0.5632    1.6303 C   0  0  0  0  0  0  0  0  0  0  0  0
    2.3723   -1.2723    0.5028 O   0  0  0  0  0  0  0  0  0  0  0  0
    3.4651   -0.8101   -0.1858 C   0  0  0  0  0  0  0  0  0  0  0  0
    4.1251    0.3364    0.2006 C   0  0  0  0  0  0  0  0  0  0  0  0
    5.2101    0.8345   -0.4466 C   0  0  0  0  0  0  0  0  0  0  0  0
    5.6975    0.1777   -1.5519 C   0  0  0  0  0  0  0  0  0  0  0  0
    6.8580    0.7287   -2.2273 C   0  0  0  0  0  0  0  0  0  0  0  0
    7.4590    1.7944   -1.8555 N   0  0  0  0  0  0  0  0  0  0  0  0
    7.3462    0.0320   -3.3703 N   0  0  0  0  0  0  0  0  0  0  0  0
    5.0610   -0.9689   -1.9622 C   0  0  0  0  0  0  0  0  0  0  0  0
    3.9589   -1.4715   -1.3017 C   0  0  0  0  0  0  0  0  0  0  0  0
   -4.6485   -0.4537    2.1570 C   0  0  0  0  0  0  0  0  0  0  0  0
   -5.7386   -0.5718    1.3332 C   0  0  0  0  0  0  0  0  0  0  0  0
  1  2  2  0
  2  3  1  0
  2  4  1  0
  4  5  2  0
  5  6  1  0
  6  7  2  0
  7  8  1  0
  8  9  1  0
  9 10  1  0
 10 11  1  0
 11 12  1  0
 12 13  1  0
 13 14  1  0
 14 15  1  0
 15 16  2  0
 16 17  1  0
 17 18  2  0
 18 19  1  0
 19 20  2  0
 19 21  1  0
 18 22  1  0
 22 23  2  0
  7 24  1  0
 24 25  2  0
 25  4  1  0
 23 15  1  0
M  END
>  <zinc_id>  (1) 
ZINC000001530775

>  <smiles>  (1) 
N=C(N)c1ccc(OCCCCCOc2ccc(C(=N)N)cc2)cc1

$$$$
