
     RDKit          3D

 24 26  0  0  0  0  0  0  0  0999 V2000
   -4.2671   -1.2341   -0.1739 C   0  0  0  0  0  0  0  0  0  0  0  0
   -3.9744   -0.8896    0.1424 C   0  0  0  0  0  0  0  0  0  0  0  0
   -4.7484   -0.3879    1.4263 C   0  0  0  0  0  0  0  0  0  0  0  0
   -2.2763   -1.3677    0.7441 S   0  0  0  0  0  0  0  0  0  0  0  0
   -1.8777   -1.2278   -1.0984 C   0  0  2  0  0  0  0  0  0  0  0  0
   -0.3116   -0.6294   -1.2491 C   0  0  2  0  0  0  0  0  0  0  0  0
   -0.0545   -0.0138    0.1505 N   0  0  0  0  0  0  0  0  0  0  0  0
    1.1710   -0.4033    0.7531 C   0  0  0  0  0  0  0  0  0  0  0  0
    1.8928   -1.1934    0.0869 O   0  0  0  0  0  0  0  0  0  0  0  0
    1.6050    0.0773    2.0911 C   0  0  0  0  0  0  0  0  0  0  0  0
    2.8893   -0.3801    2.3855 O   0  0  0  0  0  0  0  0  0  0  0  0
    4.0571   -0.0905    1.7030 C   0  0  0  0  0  0  0  0  0  0  0  0
    5.2649   -0.6524    2.1370 C   0  0  0  0  0  0  0  0  0  0  0  0
    6.4490   -0.3887    1.4882 C   0  0  0  0  0  0  0  0  0  0  0  0
    6.5019    0.4498    0.3691 C   0  0  0  0  0  0  0  0  0  0  0  0
    5.3214    1.0049   -0.0625 C   0  0  0  0  0  0  0  0  0  0  0  0
    4.1490    0.7284    0.5998 C   0  0  0  0  0  0  0  0  0  0  0  0
   -1.1270    0.6864   -1.8083 C   0  0  0  0  0  0  0  0  0  0  0  0
   -0.5720    1.4972   -2.5571 O   0  0  0  0  0  0  0  0  0  0  0  0
   -2.2340    0.2711   -1.1099 N   0  0  0  0  0  0  0  0  0  0  0  0
   -3.4748    0.5492   -0.3868 C   0  0  1  0  0  0  0  0  0  0  0  0
   -4.4759    0.6352   -1.6019 C   0  0  0  0  0  0  0  0  0  0  0  0
   -4.1178    0.4818   -2.7528 O   0  0  0  0  0  0  0  0  0  0  0  0
   -5.7900    0.8965   -1.2762 O   0  0  0  0  0  0  0  0  0  0  0  0
  1  2  1  0
  2  3  1  0
  2  4  1  0
  5  4  1  1
  5  6  1  0
  6  7  1  1
  7  8  1  0
  8  9  2  0
  8 10  1  0
 10 11  1  0
 11 12  1  0
 12 13  2  0
 13 14  1  0
 14 15  2  0
 15 16  1  0
 16 17  2  0
  6 18  1  0
 18 19  2  0
 18 20  1  0
 20 21  1  0
 21 22  1  6
 22 23  2  0
 22 24  1  0
 21  2  1  0
 20  5  1  0
 17 12  1  0
M  END
>  <zinc_id>  (1) 
ZINC000003831282

>  <smiles>  (1) 
CC1(C)S[C@@H]2[C@H](NC(=O)COc3ccccc3)C(=O)N2[C@H]1C(=O)O

$$$$
