
     RDKit          3D

 10  9  0  0  0  0  0  0  0  0999 V2000
   -2.3259   -0.7078   -0.3971 O   0  0  0  0  0  0  0  0  0  0  0  0
   -1.4281   -0.6571    0.2157 C   0  0  0  0  0  0  0  0  0  0  0  0
   -0.9800   -1.8712    0.7716 O   0  0  0  0  0  0  0  0  0  0  0  0
   -0.6362    0.6254    0.5059 C   0  0  2  0  0  0  0  0  0  0  0  0
   -1.7824    1.8608   -0.3427 S   0  0  0  0  0  0  0  0  0  0  0  0
    0.4245    0.4937   -0.7128 C   0  0  1  0  0  0  0  0  0  0  0  0
    1.3248    2.1528   -0.3029 S   0  0  0  0  0  0  0  0  0  0  0  0
    1.4737   -0.3852   -0.0056 C   0  0  0  0  0  0  0  0  0  0  0  0
    1.4925   -0.6406    1.1867 O   0  0  0  0  0  0  0  0  0  0  0  0
    2.4371   -0.8708   -0.9187 O   0  0  0  0  0  0  0  0  0  0  0  0
  1  2  2  0
  2  3  1  0
  2  4  1  0
  4  5  1  6
  4  6  1  0
  6  7  1  1
  6  8  1  0
  8  9  2  0
  8 10  1  0
M  END
>  <zinc_id>  (1) 
ZINC000003831477

>  <smiles>  (1) 
O=C(O)[C@H](S)[C@@H](S)C(=O)O

$$$$
