
     RDKit          3D

 21 23  0  0  0  0  0  0  0  0999 V2000
   -2.2082   -3.3598    1.1068 O   0  0  0  0  0  0  0  0  0  0  0  0
   -1.9673   -2.3747    0.5458 C   0  0  0  0  0  0  0  0  0  0  0  0
   -2.4626   -1.1087    0.9470 N   0  0  0  0  0  0  0  0  0  0  0  0
   -2.0152    0.1271    0.2973 C   0  0  0  0  0  0  0  0  0  0  0  0
   -2.9963    1.0516    0.0766 C   0  0  0  0  0  0  0  0  0  0  0  0
   -2.6410    2.2121   -0.6197 C   0  0  0  0  0  0  0  0  0  0  0  0
   -1.3721    2.4444   -1.0748 C   0  0  0  0  0  0  0  0  0  0  0  0
   -0.9954    3.9122   -1.9396 Cl  0  0  0  0  0  0  0  0  0  0  0  0
   -0.4031    1.4676   -0.8203 C   0  0  0  0  0  0  0  0  0  0  0  0
   -0.7240    0.3228   -0.1408 C   0  0  0  0  0  0  0  0  0  0  0  0
    0.3804   -0.5969   -0.0272 C   0  0  0  0  0  0  0  0  0  0  0  0
    1.7249   -0.1319    0.2347 C   0  0  0  0  0  0  0  0  0  0  0  0
    2.6894   -1.1112   -0.1415 C   0  0  0  0  0  0  0  0  0  0  0  0
    4.0065   -0.9635    0.0844 C   0  0  0  0  0  0  0  0  0  0  0  0
    4.5062    0.1608    0.7024 C   0  0  0  0  0  0  0  0  0  0  0  0
    3.5831    1.1065    1.0712 C   0  0  0  0  0  0  0  0  0  0  0  0
    2.2044    0.9515    0.8383 C   0  0  0  0  0  0  0  0  0  0  0  0
    1.1095    2.0980    1.5686 Cl  0  0  0  0  0  0  0  0  0  0  0  0
    0.2326   -1.8520   -0.2859 N   0  0  0  0  0  0  0  0  0  0  0  0
   -0.9982   -2.6914   -0.7354 C   0  0  2  0  0  0  0  0  0  0  0  0
   -1.6536   -1.6644   -1.6879 O   0  0  0  0  0  0  0  0  0  0  0  0
  1  2  2  0
  2  3  1  0
  3  4  1  0
  4  5  2  0
  5  6  1  0
  6  7  2  0
  7  8  1  0
  7  9  1  0
  9 10  2  0
 10 11  1  0
 11 12  1  0
 12 13  2  0
 13 14  1  0
 14 15  2  0
 15 16  1  0
 16 17  2  0
 17 18  1  0
 11 19  2  0
 19 20  1  0
 20 21  1  6
 20  2  1  0
 10  4  1  0
 17 12  1  0
M  END
>  <zinc_id>  (1) 
ZINC000000896595

>  <smiles>  (1) 
O=C1Nc2ccc(Cl)cc2C(c2ccccc2Cl)=N[C@@H]1O

$$$$
