
     RDKit          3D

 37 40  0  0  0  0  0  0  0  0999 V2000
    7.4247    1.5079   -1.2120 C   0  0  0  0  0  0  0  0  0  0  0  0
    7.4956    0.8351   -0.4529 C   0  0  0  0  0  0  0  0  0  0  0  0
    8.1615    1.4524    0.7902 C   0  0  0  0  0  0  0  0  0  0  0  0
    8.2737   -0.3725   -0.8178 C   0  0  0  0  0  0  0  0  0  0  0  0
    9.3291   -0.6565   -0.2199 O   0  0  0  0  0  0  0  0  0  0  0  0
    7.8284   -1.1923   -1.8297 O   0  0  0  0  0  0  0  0  0  0  0  0
    6.1415    0.3262   -0.0177 C   0  0  0  0  0  0  0  0  0  0  0  0
    5.5669   -0.6338   -0.8187 C   0  0  0  0  0  0  0  0  0  0  0  0
    4.3113   -1.1618   -0.4933 C   0  0  0  0  0  0  0  0  0  0  0  0
    3.7251   -0.6621    0.6454 C   0  0  0  0  0  0  0  0  0  0  0  0
    2.2688   -1.2815    1.0034 C   0  0  1  0  0  0  0  0  0  0  0  0
    2.5886   -1.4799    2.4900 O   0  0  0  0  0  0  0  0  0  0  0  0
    1.5679    0.2282    1.2907 C   0  0  0  0  0  0  0  0  0  0  0  0
    1.7258    0.9424   -0.0079 C   0  0  0  0  0  0  0  0  0  0  0  0
    1.0723    0.3157   -1.1815 C   0  0  0  0  0  0  0  0  0  0  0  0
   -0.3267    0.1612   -1.1070 N   0  0  0  0  0  0  0  0  0  0  0  0
   -0.8506   -0.7538   -0.1794 C   0  0  0  0  0  0  0  0  0  0  0  0
   -2.2382   -1.1772   -0.6733 C   0  0  0  0  0  0  0  0  0  0  0  0
   -3.1041    0.0607   -0.6737 C   0  0  0  0  0  0  0  0  0  0  0  0
   -4.1611   -0.0681    0.3982 C   0  0  0  0  0  0  0  0  0  0  0  0
   -3.5691   -0.2101    1.6496 O   0  0  0  0  0  0  0  0  0  0  0  0
   -4.9925    1.1866    0.3877 C   0  0  0  0  0  0  0  0  0  0  0  0
   -5.1004    1.9299    1.5400 C   0  0  0  0  0  0  0  0  0  0  0  0
   -5.8600    3.0686    1.5173 C   0  0  0  0  0  0  0  0  0  0  0  0
   -6.5156    3.4826    0.3680 C   0  0  0  0  0  0  0  0  0  0  0  0
   -6.3957    2.7210   -0.7843 C   0  0  0  0  0  0  0  0  0  0  0  0
   -5.6333    1.5688   -0.7805 C   0  0  0  0  0  0  0  0  0  0  0  0
   -5.0377   -1.2257    0.1206 C   0  0  0  0  0  0  0  0  0  0  0  0
   -6.0510   -1.5504    0.9829 C   0  0  0  0  0  0  0  0  0  0  0  0
   -6.8585   -2.6293    0.7119 C   0  0  0  0  0  0  0  0  0  0  0  0
   -6.6608   -3.3858   -0.4141 C   0  0  0  0  0  0  0  0  0  0  0  0
   -5.6379   -3.0542   -1.2798 C   0  0  0  0  0  0  0  0  0  0  0  0
   -4.8377   -1.9794   -1.0050 C   0  0  0  0  0  0  0  0  0  0  0  0
   -2.2972    1.3129   -0.4088 C   0  0  0  0  0  0  0  0  0  0  0  0
   -1.1102    1.3233   -1.3685 C   0  0  0  0  0  0  0  0  0  0  0  0
    4.2557    0.2673    1.4416 C   0  0  0  0  0  0  0  0  0  0  0  0
    5.5014    0.7836    1.1090 C   0  0  0  0  0  0  0  0  0  0  0  0
  1  2  1  0
  2  3  1  0
  2  4  1  0
  4  5  2  0
  4  6  1  0
  2  7  1  0
  7  8  2  0
  8  9  1  0
  9 10  2  0
 10 11  1  0
 11 12  1  1
 11 13  1  0
 13 14  1  0
 14 15  1  0
 15 16  1  0
 16 17  1  0
 17 18  1  0
 18 19  1  0
 19 20  1  0
 20 21  1  0
 20 22  1  0
 22 23  2  0
 23 24  1  0
 24 25  2  0
 25 26  1  0
 26 27  2  0
 20 28  1  0
 28 29  2  0
 29 30  1  0
 30 31  2  0
 31 32  1  0
 32 33  2  0
 19 34  1  0
 34 35  1  0
 10 36  1  0
 36 37  2  0
 37  7  1  0
 35 16  1  0
 27 22  1  0
 33 28  1  0
M  END
>  <zinc_id>  (1) 
ZINC000003824921

>  <smiles>  (1) 
CC(C)(C(=O)O)c1ccc([C@@H](O)CCCN2CCC(C(O)(c3ccccc3)c3ccccc3)CC2)cc1

$$$$
