
     RDKit          2D

 19 21  0  0  0  0  0  0  0  0999 V2000
   -5.5059   -0.5977    0.0000 N   0  0  0  0  0  0  0  0  0  0  0  0
   -4.2279    0.1875    0.0000 C   0  0  0  0  0  0  0  0  0  0  0  0
   -4.2689    1.6870    0.0000 N   0  0  0  0  0  0  0  0  0  0  0  0
   -2.9909    2.4722    0.0000 C   0  0  0  0  0  0  0  0  0  0  0  0
   -1.6718    1.7581    0.0000 N   0  0  0  0  0  0  0  0  0  0  0  0
   -1.6308    0.2586    0.0000 C   0  0  0  0  0  0  0  0  0  0  0  0
   -2.9088   -0.5266    0.0000 C   0  0  0  0  0  0  0  0  0  0  0  0
   -2.5569   -1.9848    0.0000 N   0  0  0  0  0  0  0  0  0  0  0  0
   -1.0614   -2.1007    0.0000 C   0  0  0  0  0  0  0  0  0  0  0  0
   -0.4890   -0.7142    0.0000 N   0  0  0  0  0  0  0  0  0  0  0  0
    0.9691   -0.3623    0.0000 C   0  0  0  0  0  0  0  0  0  0  0  0
    1.5415    1.0242    0.0000 O   0  0  0  0  0  0  0  0  0  0  0  0
    3.0370    0.9083    0.0000 C   0  0  0  0  0  0  0  0  0  0  0  0
    4.0098    2.0500    0.0000 C   0  0  0  0  0  0  0  0  0  0  0  0
    5.4850    1.7784    0.0000 O   0  0  0  0  0  0  0  0  0  0  0  0
    3.3889   -0.5499    0.0000 C   0  0  0  0  0  0  0  0  0  0  0  0
    4.7754   -1.1223    0.0000 O   0  0  0  0  0  0  0  0  0  0  0  0
    2.1109   -1.3351    0.0000 C   0  0  0  0  0  0  0  0  0  0  0  0
    1.9949   -2.8307    0.0000 O   0  0  0  0  0  0  0  0  0  0  0  0
  1  2  1  0
  2  3  2  0
  3  4  1  0
  4  5  2  0
  5  6  1  0
  6  7  2  0
  7  8  1  0
  8  9  2  0
  9 10  1  0
 11 10  1  6
 11 12  1  0
 12 13  1  0
 13 14  1  6
 14 15  1  0
 13 16  1  0
 16 17  1  1
 16 18  1  0
 18 19  1  1
  7  2  1  0
 18 11  1  0
 10  6  1  0
M  END
>  <zinc_id>  (1) 
ZINC000002169830

>  <smiles>  (1) 
Nc1ncnc2c1ncn2[C@@H]1O[C@H](CO)[C@@H](O)[C@H]1O

$$$$
