
     RDKit          3D

 23 25  0  0  0  0  0  0  0  0999 V2000
    5.7389   -0.2571    1.2601 C   0  0  0  0  0  0  0  0  0  0  0  0
    4.9546    0.1356    0.1267 N   0  0  0  0  0  0  0  0  0  0  0  0
    5.7553    0.5939   -1.0026 C   0  0  0  0  0  0  0  0  0  0  0  0
    4.0036    1.1724    0.4776 C   0  0  0  0  0  0  0  0  0  0  0  0
    3.2366    1.5157   -0.8043 C   0  0  0  0  0  0  0  0  0  0  0  0
    2.5323    0.2760   -1.2882 C   0  0  0  0  0  0  0  0  0  0  0  0
    2.9133   -0.5391   -2.3359 C   0  0  0  0  0  0  0  0  0  0  0  0
    1.9845   -1.5166   -2.3940 N   0  0  0  0  0  0  0  0  0  0  0  0
    1.0486   -1.3280   -1.4181 C   0  0  0  0  0  0  0  0  0  0  0  0
   -0.0939   -2.0417   -1.0613 C   0  0  0  0  0  0  0  0  0  0  0  0
   -0.8312   -1.5789   -0.0184 C   0  0  0  0  0  0  0  0  0  0  0  0
   -0.5472   -0.4567    0.7245 C   0  0  0  0  0  0  0  0  0  0  0  0
   -1.4207   -0.0198    1.8493 C   0  0  0  0  0  0  0  0  0  0  0  0
   -2.6420    1.0887    1.1253 S   0  0  0  0  0  0  0  0  0  0  0  0
   -1.8711    2.1993    0.4590 O   0  0  0  0  0  0  0  0  0  0  0  0
   -3.5329    1.6518    2.1678 O   0  0  0  0  0  0  0  0  0  0  0  0
   -3.4837    0.1497   -0.0521 N   0  0  0  0  0  0  0  0  0  0  0  0
   -4.1690   -0.9684    0.5021 C   0  0  0  0  0  0  0  0  0  0  0  0
   -5.5537   -1.0444   -0.0579 C   0  0  0  0  0  0  0  0  0  0  0  0
   -5.5689   -0.0150   -1.1423 C   0  0  0  0  0  0  0  0  0  0  0  0
   -4.4242    0.9282   -0.8310 C   0  0  0  0  0  0  0  0  0  0  0  0
    0.5987    0.2510    0.3597 C   0  0  0  0  0  0  0  0  0  0  0  0
    1.3718   -0.1965   -0.7007 C   0  0  0  0  0  0  0  0  0  0  0  0
  1  2  1  0
  2  3  1  0
  2  4  1  0
  4  5  1  0
  5  6  1  0
  6  7  2  0
  7  8  1  0
  8  9  1  0
  9 10  2  0
 10 11  1  0
 11 12  2  0
 12 13  1  0
 13 14  1  0
 14 15  2  0
 14 16  2  0
 14 17  1  0
 17 18  1  0
 18 19  1  0
 19 20  1  0
 20 21  1  0
 12 22  1  0
 22 23  2  0
 23  6  1  0
 23  9  1  0
 21 17  1  0
M  END
>  <zinc_id>  (1) 
ZINC000000018087

>  <smiles>  (1) 
CN(C)CCc1c[nH]c2ccc(CS(=O)(=O)N3CCCC3)cc12

$$$$
