
     RDKit          3D

 12 12  0  0  0  0  0  0  0  0999 V2000
    2.7576    1.3937   -0.2714 N   0  0  0  0  0  0  0  0  0  0  0  0
    2.6075    0.1171   -0.9310 C   0  0  0  0  0  0  0  0  0  0  0  0
    2.1226   -0.8339    0.3178 C   0  0  2  0  0  0  0  0  0  0  0  0
    2.0278   -2.0624   -0.5486 O   0  0  0  0  0  0  0  0  0  0  0  0
    0.6201   -0.4651    0.2703 C   0  0  0  0  0  0  0  0  0  0  0  0
   -0.2646   -1.4639    0.5030 C   0  0  0  0  0  0  0  0  0  0  0  0
   -1.6550   -1.2375    0.4863 C   0  0  0  0  0  0  0  0  0  0  0  0
   -2.0780    0.0405    0.2237 C   0  0  0  0  0  0  0  0  0  0  0  0
   -3.4396    0.3440    0.1900 O   0  0  0  0  0  0  0  0  0  0  0  0
   -1.2115    1.0554   -0.0121 C   0  0  0  0  0  0  0  0  0  0  0  0
   -1.6330    2.3305   -0.2742 O   0  0  0  0  0  0  0  0  0  0  0  0
    0.1461    0.7816    0.0155 C   0  0  0  0  0  0  0  0  0  0  0  0
  1  2  1  0
  2  3  1  0
  3  4  1  6
  3  5  1  0
  5  6  2  0
  6  7  1  0
  7  8  2  0
  8  9  1  0
  8 10  1  0
 10 11  1  0
 10 12  2  0
 12  5  1  0
M  END
>  <zinc_id>  (1) 
ZINC000000057624

>  <smiles>  (1) 
NC[C@H](O)c1ccc(O)c(O)c1

$$$$
