
     RDKit          3D

 36 39  0  0  0  0  0  0  0  0999 V2000
    4.4765    1.0653   -3.6806 C   0  0  0  0  0  0  0  0  0  0  0  0
    3.5131    0.4151   -3.8552 C   0  0  0  0  0  0  0  0  0  0  0  0
    3.0172   -0.5929   -2.8479 C   0  0  0  0  0  0  0  0  0  0  0  0
    2.6915    0.0515   -1.5212 C   0  0  0  0  0  0  0  0  0  0  0  0
    2.8894    1.2911   -1.5032 O   0  0  0  0  0  0  0  0  0  0  0  0
    2.2178   -0.6909   -0.4428 O   0  0  0  0  0  0  0  0  0  0  0  0
    1.9277   -0.0162    0.7363 C   0  0  2  0  0  0  0  0  0  0  0  0
    3.0999    0.6292    1.2979 C   0  0  0  0  0  0  0  0  0  0  0  0
    2.9996    1.5948    2.1060 O   0  0  0  0  0  0  0  0  0  0  0  0
    4.4833    0.2521    1.0151 C   0  0  0  0  0  0  0  0  0  0  0  0
    4.6772   -0.9236    0.3530 O   0  0  0  0  0  0  0  0  0  0  0  0
    5.9266   -1.4492    0.0032 C   0  0  0  0  0  0  0  0  0  0  0  0
    6.0563   -2.7494   -0.7251 C   0  0  0  0  0  0  0  0  0  0  0  0
    6.9454   -0.7967    0.3187 O   0  0  0  0  0  0  0  0  0  0  0  0
    1.6078   -1.0240    1.8956 C   0  0  0  0  0  0  0  0  0  0  0  0
    0.3258   -0.4765    2.5228 C   0  0  0  0  0  0  0  0  0  0  0  0
   -0.3101   -0.5683    1.0490 C   0  0  1  0  0  0  0  0  0  0  0  0
   -1.5861    0.5081    1.1967 C   0  0  2  0  0  0  0  0  0  0  0  0
   -2.5430   -0.4366    2.0833 C   0  0  0  0  0  0  0  0  0  0  0  0
   -3.8068    0.6583    2.0485 C   0  0  2  0  0  0  0  0  0  0  0  0
   -4.6991   -0.2573    2.8092 F   0  0  0  0  0  0  0  0  0  0  0  0
   -4.2884    0.2251    0.5951 C   0  0  0  0  0  0  0  0  0  0  0  0
   -5.3646   -0.4429    0.4059 C   0  0  0  0  0  0  0  0  0  0  0  0
   -5.8339   -0.8548   -0.8934 C   0  0  0  0  0  0  0  0  0  0  0  0
   -6.8925   -1.5091   -1.0490 O   0  0  0  0  0  0  0  0  0  0  0  0
   -5.0127   -0.4733   -2.0468 C   0  0  0  0  0  0  0  0  0  0  0  0
   -3.9366    0.2049   -1.7786 C   0  0  0  0  0  0  0  0  0  0  0  0
   -3.3993    0.6575   -0.5237 C   0  0  1  0  0  0  0  0  0  0  0  0
   -3.3285    2.1783   -0.4176 C   0  0  0  0  0  0  0  0  0  0  0  0
   -2.1623    0.0082   -0.2085 C   0  0  2  0  0  0  0  0  0  0  0  0
   -2.3061   -1.3605   -0.1865 F   0  0  0  0  0  0  0  0  0  0  0  0
   -0.9774    0.1168   -1.2913 C   0  0  1  0  0  0  0  0  0  0  0  0
   -1.6281    1.1994   -2.1223 O   0  0  0  0  0  0  0  0  0  0  0  0
    0.0337    1.1738   -0.5577 C   0  0  0  0  0  0  0  0  0  0  0  0
    0.6589    0.6633    0.6025 C   0  0  2  0  0  0  0  0  0  0  0  0
    0.5281    1.7293    1.7051 C   0  0  0  0  0  0  0  0  0  0  0  0
  1  2  1  0
  2  3  1  0
  3  4  1  0
  4  5  2  0
  4  6  1  0
  7  6  1  6
  7  8  1  0
  8  9  2  0
  8 10  1  0
 10 11  1  0
 11 12  1  0
 12 13  1  0
 12 14  2  0
  7 15  1  0
 15 16  1  0
 17 16  1  1
 17 18  1  0
 18 19  1  1
 19 20  1  0
 20 21  1  1
 20 22  1  0
 22 23  2  0
 23 24  1  0
 24 25  2  0
 24 26  1  0
 26 27  2  0
 27 28  1  0
 28 29  1  6
 28 30  1  0
 30 31  1  1
 30 32  1  0
 32 33  1  6
 32 34  1  0
 34 35  1  0
 35 36  1  1
 35  7  1  0
 35 17  1  0
 30 18  1  0
 28 22  1  0
M  END
>  <zinc_id>  (1) 
ZINC000004212945

>  <smiles>  (1) 
CCCC(=O)O[C@]1(C(=O)COC(C)=O)CC[C@H]2[C@@H]3C[C@H](F)C4=CC(=O)C=C[C@]4(C)[C@@]3(F)[C@@H](O)C[C@@]21C

$$$$
