
     RDKit          3D

 20 22  0  0  0  0  0  0  0  0999 V2000
    5.4634   -0.5702   -0.8789 C   0  0  0  0  0  0  0  0  0  0  0  0
    4.0661   -0.2040   -0.8882 N   0  0  0  0  0  0  0  0  0  0  0  0
    3.7980    0.5981    0.3091 C   0  0  0  0  0  0  0  0  0  0  0  0
    2.3278    0.9601    0.2613 C   0  0  0  0  0  0  0  0  0  0  0  0
    1.5507   -0.2994    0.2605 C   0  0  0  0  0  0  0  0  0  0  0  0
    0.1026   -0.1357    0.2166 N   0  0  0  0  0  0  0  0  0  0  0  0
   -0.6209   -1.3688    0.2145 C   0  0  0  0  0  0  0  0  0  0  0  0
    0.1407   -2.4304    0.6930 C   0  0  0  0  0  0  0  0  0  0  0  0
   -0.4519   -3.6744    0.7358 C   0  0  0  0  0  0  0  0  0  0  0  0
   -1.7569   -3.8503    0.3161 C   0  0  0  0  0  0  0  0  0  0  0  0
   -2.5242   -2.7849   -0.1651 C   0  0  0  0  0  0  0  0  0  0  0  0
   -1.9198   -1.5437   -0.2032 C   0  0  0  0  0  0  0  0  0  0  0  0
   -2.8568   -0.5451   -0.7272 C   0  0  0  0  0  0  0  0  0  0  0  0
   -2.9217    0.7382   -0.0157 C   0  0  0  0  0  0  0  0  0  0  0  0
   -1.7302    1.5433    0.0804 C   0  0  0  0  0  0  0  0  0  0  0  0
   -2.0723    2.8929    0.0598 C   0  0  0  0  0  0  0  0  0  0  0  0
   -1.0662    3.8345    0.1427 C   0  0  0  0  0  0  0  0  0  0  0  0
    0.2630    3.4924    0.2450 C   0  0  0  0  0  0  0  0  0  0  0  0
    0.6059    2.1452    0.2656 C   0  0  0  0  0  0  0  0  0  0  0  0
   -0.3972    1.2020    0.1830 C   0  0  0  0  0  0  0  0  0  0  0  0
  1  2  1  0
  2  3  1  0
  3  4  1  0
  4  5  1  0
  5  6  1  0
  6  7  1  0
  7  8  2  0
  8  9  1  0
  9 10  2  0
 10 11  1  0
 11 12  2  0
 12 13  1  0
 13 14  1  0
 14 15  1  0
 15 16  2  0
 16 17  1  0
 17 18  2  0
 18 19  1  0
 19 20  2  0
 20  6  1  0
 12  7  1  0
 20 15  1  0
M  END
>  <zinc_id>  (1) 
ZINC000001530611

>  <smiles>  (1) 
CNCCCN1c2ccccc2CCc2ccccc21

$$$$
