
     RDKit          3D

 19 20  0  0  0  0  0  0  0  0999 V2000
    1.2133    1.0573   -2.1275 C   0  0  0  0  0  0  0  0  0  0  0  0
    0.2323    0.4164   -1.2025 C   0  0  0  0  0  0  0  0  0  0  0  0
   -1.0343    0.9190   -1.0335 C   0  0  0  0  0  0  0  0  0  0  0  0
   -1.9550    0.3430   -0.1857 C   0  0  0  0  0  0  0  0  0  0  0  0
   -3.3079    0.9188   -0.0353 C   0  0  0  0  0  0  0  0  0  0  0  0
   -3.4258    2.1296   -0.9166 C   0  0  0  0  0  0  0  0  0  0  0  0
   -3.6336    1.2515    1.3939 C   0  0  0  0  0  0  0  0  0  0  0  0
   -4.3561   -0.0825   -0.5204 C   0  0  0  0  0  0  0  0  0  0  0  0
   -1.6308   -0.7922    0.5467 C   0  0  0  0  0  0  0  0  0  0  0  0
   -2.5635   -1.3707    1.4017 O   0  0  0  0  0  0  0  0  0  0  0  0
   -0.3632   -1.3014    0.3826 C   0  0  0  0  0  0  0  0  0  0  0  0
   -0.0306   -2.5273    1.1811 C   0  0  0  0  0  0  0  0  0  0  0  0
    0.5537   -0.7119   -0.4743 C   0  0  0  0  0  0  0  0  0  0  0  0
    1.8972   -1.3008   -0.6093 C   0  0  0  0  0  0  0  0  0  0  0  0
    2.9209   -0.4881    0.1405 C   0  0  0  0  0  0  0  0  0  0  0  0
    3.9528    0.0777   -0.3816 N   0  0  0  0  0  0  0  0  0  0  0  0
    4.7502    0.7856    0.5804 C   0  0  0  0  0  0  0  0  0  0  0  0
    3.8524    0.8847    1.7945 C   0  0  0  0  0  0  0  0  0  0  0  0
    2.9279   -0.2086    1.5330 N   0  0  0  0  0  0  0  0  0  0  0  0
  1  2  1  0
  2  3  2  0
  3  4  1  0
  4  5  1  0
  5  6  1  0
  5  7  1  0
  5  8  1  0
  4  9  2  0
  9 10  1  0
  9 11  1  0
 11 12  1  0
 11 13  2  0
 13 14  1  0
 14 15  1  0
 15 16  2  0
 16 17  1  0
 17 18  1  0
 18 19  1  0
 13  2  1  0
 19 15  1  0
M  END
>  <zinc_id>  (1) 
ZINC000000057435

>  <smiles>  (1) 
Cc1cc(C(C)(C)C)c(O)c(C)c1CC1=NCCN1

$$$$
