
     RDKit          3D

 31 34  0  0  0  0  0  0  0  0999 V2000
   -1.3624   -2.4552   -1.7326 C   0  0  0  0  0  0  0  0  0  0  0  0
   -1.4182   -1.6539   -0.3578 C   0  0  1  0  0  0  0  0  0  0  0  0
    0.0471   -1.9629    0.0890 C   0  0  0  0  0  0  0  0  0  0  0  0
    1.0243   -1.1220    0.1199 N   0  0  0  0  0  0  0  0  0  0  0  0
    2.2030   -1.5134    0.5190 C   0  0  0  0  0  0  0  0  0  0  0  0
    3.3506   -0.5742    0.5678 C   0  0  0  0  0  0  0  0  0  0  0  0
    4.5908   -1.0007    0.9916 C   0  0  0  0  0  0  0  0  0  0  0  0
    5.6839   -0.1626    1.0526 C   0  0  0  0  0  0  0  0  0  0  0  0
    5.5728    1.1613    0.6836 C   0  0  0  0  0  0  0  0  0  0  0  0
    6.7000    2.0643    0.7366 C   0  0  0  0  0  0  0  0  0  0  0  0
    7.5892    2.8025    0.7783 N   0  0  0  0  0  0  0  0  0  0  0  0
    4.3305    1.5839    0.2603 C   0  0  0  0  0  0  0  0  0  0  0  0
    3.2356    0.7496    0.1979 C   0  0  0  0  0  0  0  0  0  0  0  0
    2.3314   -2.8284    0.8901 C   0  0  0  0  0  0  0  0  0  0  0  0
    0.7265   -3.4133    0.6342 S   0  0  0  0  0  0  0  0  0  0  0  0
   -1.3451   -0.1550   -0.8102 C   0  0  2  0  0  0  0  0  0  0  0  0
   -0.1781    0.1421   -1.5385 O   0  0  0  0  0  0  0  0  0  0  0  0
   -1.0882    0.5271    0.5568 C   0  0  0  0  0  0  0  0  0  0  0  0
   -2.0235    0.3079    1.5918 N   0  0  0  0  0  0  0  0  0  0  0  0
   -3.1103    0.8593    2.0963 C   0  0  0  0  0  0  0  0  0  0  0  0
   -3.5920    0.1779    3.1306 N   0  0  0  0  0  0  0  0  0  0  0  0
   -2.7829   -0.8616    3.3058 C   0  0  0  0  0  0  0  0  0  0  0  0
   -1.8318   -0.7916    2.3805 N   0  0  0  0  0  0  0  0  0  0  0  0
   -2.4475    0.4255   -1.5154 C   0  0  0  0  0  0  0  0  0  0  0  0
   -3.3148    1.2791   -0.8707 C   0  0  0  0  0  0  0  0  0  0  0  0
   -4.4234    1.8758   -1.3904 C   0  0  0  0  0  0  0  0  0  0  0  0
   -5.2712    2.7081   -0.7668 F   0  0  0  0  0  0  0  0  0  0  0  0
   -4.6844    1.5680   -2.7295 C   0  0  0  0  0  0  0  0  0  0  0  0
   -3.8537    0.7262   -3.4179 C   0  0  0  0  0  0  0  0  0  0  0  0
   -2.7398    0.1535   -2.8289 C   0  0  0  0  0  0  0  0  0  0  0  0
   -1.9184   -0.6175   -3.6444 F   0  0  0  0  0  0  0  0  0  0  0  0
  2  1  1  6
  2  3  1  0
  3  4  2  0
  4  5  1  0
  5  6  1  0
  6  7  2  0
  7  8  1  0
  8  9  2  0
  9 10  1  0
 10 11  3  0
  9 12  1  0
 12 13  2  0
  5 14  2  0
 14 15  1  0
  2 16  1  0
 16 17  1  6
 16 18  1  0
 18 19  1  0
 19 20  1  0
 20 21  2  0
 21 22  1  0
 22 23  2  0
 16 24  1  0
 24 25  2  0
 25 26  1  0
 26 27  1  0
 26 28  2  0
 28 29  1  0
 29 30  2  0
 30 31  1  0
 15  3  1  0
 23 19  1  0
 30 24  1  0
 13  6  1  0
M  END
>  <zinc_id>  (1) 
ZINC000001485935

>  <smiles>  (1) 
C[C@@H](c1nc(-c2ccc(C#N)cc2)cs1)[C@](O)(Cn1cncn1)c1cc(F)ccc1F

$$$$
