
     RDKit          3D

 25 27  0  0  0  0  0  0  0  0999 V2000
   -0.5693   -1.5546   -2.1474 C   0  0  0  0  0  0  0  0  0  0  0  0
   -2.0417   -1.3984   -1.8474 C   0  0  0  0  0  0  0  0  0  0  0  0
   -2.9427   -2.0799   -2.5820 C   0  0  0  0  0  0  0  0  0  0  0  0
   -4.2583   -1.9147   -2.3031 C   0  0  0  0  0  0  0  0  0  0  0  0
   -4.2275   -0.8054   -1.0126 S   0  0  0  0  0  0  0  0  0  0  0  0
   -2.5469   -0.5918   -0.8738 C   0  0  0  0  0  0  0  0  0  0  0  0
   -1.7909    0.2735    0.1045 C   0  0  0  0  0  0  0  0  0  0  0  0
   -0.5427    0.2058    0.0536 C   0  0  0  0  0  0  0  0  0  0  0  0
    0.6668    0.6723    0.5948 C   0  0  0  0  0  0  0  0  0  0  0  0
    1.5692   -0.2962    1.2810 C   0  0  0  0  0  0  0  0  0  0  0  0
    2.0618   -1.3724    0.4749 N   0  0  0  0  0  0  0  0  0  0  0  0
    2.8914   -2.2137    1.3182 C   0  0  0  0  0  0  0  0  0  0  0  0
    3.9051   -1.3539    2.0016 C   0  0  0  0  0  0  0  0  0  0  0  0
    4.7635   -0.6935    0.9485 C   0  0  0  0  0  0  0  0  0  0  0  0
    3.7241    0.3462    0.1923 C   0  0  1  0  0  0  0  0  0  0  0  0
    4.7340    0.6652   -1.0218 C   0  0  0  0  0  0  0  0  0  0  0  0
    4.9683    1.8897   -1.1101 O   0  0  0  0  0  0  0  0  0  0  0  0
    5.2139   -0.3284   -1.7908 O   0  0  0  0  0  0  0  0  0  0  0  0
    2.9247   -0.8593   -0.5972 C   0  0  0  0  0  0  0  0  0  0  0  0
   -2.6279    1.0925    0.9817 C   0  0  0  0  0  0  0  0  0  0  0  0
   -4.3742    1.0649    0.9794 S   0  0  0  0  0  0  0  0  0  0  0  0
   -4.6830    2.2151    2.1837 C   0  0  0  0  0  0  0  0  0  0  0  0
   -3.4392    2.5867    2.5522 C   0  0  0  0  0  0  0  0  0  0  0  0
   -2.3874    2.0142    1.9390 C   0  0  0  0  0  0  0  0  0  0  0  0
   -0.9911    2.4362    2.3467 C   0  0  0  0  0  0  0  0  0  0  0  0
  1  2  1  0
  2  3  1  0
  3  4  2  0
  4  5  1  0
  5  6  1  0
  6  7  1  0
  7  8  2  3
  8  9  1  0
  9 10  1  0
 10 11  1  0
 11 12  1  0
 12 13  1  0
 13 14  1  0
 14 15  1  0
 15 16  1  6
 16 17  2  0
 16 18  1  0
 15 19  1  0
  7 20  1  0
 20 21  1  0
 21 22  1  0
 22 23  2  0
 23 24  1  0
 24 25  1  0
  6  2  2  0
 19 11  1  0
 24 20  2  0
M  END
>  <zinc_id>  (1) 
ZINC000003831531

>  <smiles>  (1) 
Cc1ccsc1C(=CCCN1CCC[C@@H](C(=O)O)C1)c1sccc1C

$$$$
