
     RDKit          3D

 23 25  0  0  0  0  0  0  0  0999 V2000
    5.1820    2.8966   -0.6892 C   0  0  0  0  0  0  0  0  0  0  0  0
    4.0359    1.9598   -0.5501 C   0  0  0  0  0  0  0  0  0  0  0  0
    3.5655    1.2290   -1.6431 C   0  0  0  0  0  0  0  0  0  0  0  0
    2.4947    0.3568   -1.5003 C   0  0  0  0  0  0  0  0  0  0  0  0
    1.8479    0.1645   -0.3019 C   0  0  0  0  0  0  0  0  0  0  0  0
    0.7265   -0.7525   -0.1639 C   0  0  0  0  0  0  0  0  0  0  0  0
    0.6203   -2.0055   -0.6447 N   0  0  0  0  0  0  0  0  0  0  0  0
   -0.5523   -2.5504   -0.3248 C   0  0  0  0  0  0  0  0  0  0  0  0
   -1.0951   -3.7921   -0.5963 C   0  0  0  0  0  0  0  0  0  0  0  0
   -2.3512   -4.1301   -0.1501 C   0  0  0  0  0  0  0  0  0  0  0  0
   -3.0486   -3.1908    0.5753 C   0  0  0  0  0  0  0  0  0  0  0  0
   -4.4128   -3.4401    1.1100 C   0  0  0  0  0  0  0  0  0  0  0  0
   -2.4702   -1.9862    0.8142 C   0  0  0  0  0  0  0  0  0  0  0  0
   -1.2379   -1.6281    0.3877 N   0  0  0  0  0  0  0  0  0  0  0  0
   -0.4808   -0.5256    0.4988 C   0  0  0  0  0  0  0  0  0  0  0  0
   -0.8429    0.7109    1.1902 C   0  0  0  0  0  0  0  0  0  0  0  0
   -1.2269    1.8039    0.2844 C   0  0  0  0  0  0  0  0  0  0  0  0
   -1.2333    1.6703   -0.9544 O   0  0  0  0  0  0  0  0  0  0  0  0
   -1.6068    3.0608    0.8166 N   0  0  0  0  0  0  0  0  0  0  0  0
   -2.0025    4.1730   -0.0528 C   0  0  0  0  0  0  0  0  0  0  0  0
   -1.6203    3.3118    2.2617 C   0  0  0  0  0  0  0  0  0  0  0  0
    2.3234    0.8999    0.7902 C   0  0  0  0  0  0  0  0  0  0  0  0
    3.3853    1.7640    0.6475 C   0  0  0  0  0  0  0  0  0  0  0  0
  1  2  1  0
  2  3  2  0
  3  4  1  0
  4  5  2  0
  5  6  1  0
  6  7  1  0
  7  8  2  0
  8  9  1  0
  9 10  2  0
 10 11  1  0
 11 12  1  0
 11 13  2  0
 13 14  1  0
 14 15  1  0
 15 16  1  0
 16 17  1  0
 17 18  2  0
 17 19  1  0
 19 20  1  0
 19 21  1  0
  5 22  1  0
 22 23  2  0
 23  2  1  0
 15  6  2  0
 14  8  1  0
M  END
>  <zinc_id>  (1) 
ZINC000000003876

>  <smiles>  (1) 
Cc1ccc(-c2nc3ccc(C)cn3c2CC(=O)N(C)C)cc1

$$$$
