
     RDKit          3D

 18 19  0  0  0  0  0  0  0  0999 V2000
   -4.2338   -0.6682   -1.1798 C   0  0  0  0  0  0  0  0  0  0  0  0
   -2.9835    0.3908   -1.4390 C   0  0  1  0  0  0  0  0  0  0  0  0
   -3.2604    1.2653   -0.1748 C   0  0  0  0  0  0  0  0  0  0  0  0
   -2.6396    1.0839    0.8345 O   0  0  0  0  0  0  0  0  0  0  0  0
   -4.2263    2.2023   -0.3307 O   0  0  0  0  0  0  0  0  0  0  0  0
   -1.8308   -0.5413   -0.8240 C   0  0  0  0  0  0  0  0  0  0  0  0
   -2.0580   -1.3175    0.2244 C   0  0  0  0  0  0  0  0  0  0  0  0
   -1.0129   -2.0910    0.6948 C   0  0  0  0  0  0  0  0  0  0  0  0
    0.2289   -2.0601    0.0961 C   0  0  0  0  0  0  0  0  0  0  0  0
    0.4211   -1.2374   -0.9932 C   0  0  0  0  0  0  0  0  0  0  0  0
    1.6643   -1.1805   -1.6241 O   0  0  0  0  0  0  0  0  0  0  0  0
    2.5494   -0.2131   -1.1219 C   0  0  0  0  0  0  0  0  0  0  0  0
    3.4335   -0.4750   -0.1044 C   0  0  0  0  0  0  0  0  0  0  0  0
    4.3010    0.4736    0.3876 C   0  0  0  0  0  0  0  0  0  0  0  0
    4.2900    1.7435   -0.1569 C   0  0  0  0  0  0  0  0  0  0  0  0
    3.4128    2.0148   -1.1712 C   0  0  0  0  0  0  0  0  0  0  0  0
    2.5592    1.0703   -1.6507 C   0  0  0  0  0  0  0  0  0  0  0  0
   -0.6148   -0.4606   -1.4717 C   0  0  0  0  0  0  0  0  0  0  0  0
  2  1  1  1
  2  3  1  0
  3  4  2  0
  3  5  1  0
  2  6  1  0
  6  7  2  0
  7  8  1  0
  8  9  2  0
  9 10  1  0
 10 11  1  0
 11 12  1  0
 12 13  2  0
 13 14  1  0
 14 15  2  0
 15 16  1  0
 16 17  2  0
 10 18  2  0
 18  6  1  0
 17 12  1  0
M  END
>  <zinc_id>  (1) 
ZINC000000402909

>  <smiles>  (1) 
C[C@@H](C(=O)O)c1cccc(Oc2ccccc2)c1

$$$$
