
     RDKit          3D

 19 19  0  0  0  0  0  0  0  0999 V2000
   -1.9498   -2.9617   -0.9181 C   0  0  0  0  0  0  0  0  0  0  0  0
   -1.7603   -1.7242   -0.0936 C   0  0  0  0  0  0  0  0  0  0  0  0
   -2.4568   -0.5763   -0.7403 C   0  0  0  0  0  0  0  0  0  0  0  0
   -2.3019    0.6484    0.0230 N   0  0  0  0  0  0  0  0  0  0  0  0
   -3.5164    1.3654   -0.0208 C   0  0  0  0  0  0  0  0  0  0  0  0
   -3.8569    2.1606    1.1876 C   0  0  0  0  0  0  0  0  0  0  0  0
   -5.2009    2.8485    0.9222 C   0  0  0  0  0  0  0  0  0  0  0  0
   -0.9245    1.4558   -0.5331 S   0  0  0  0  0  0  0  0  0  0  0  0
   -1.0655    1.7135   -2.0270 O   0  0  0  0  0  0  0  0  0  0  0  0
   -0.6995    2.7942    0.0983 O   0  0  0  0  0  0  0  0  0  0  0  0
    0.5409    0.5278   -0.3160 C   0  0  0  0  0  0  0  0  0  0  0  0
    0.9615   -0.3091   -1.3292 C   0  0  0  0  0  0  0  0  0  0  0  0
    2.1095   -1.0674   -1.2182 C   0  0  0  0  0  0  0  0  0  0  0  0
    2.8889   -1.0196   -0.0822 C   0  0  0  0  0  0  0  0  0  0  0  0
    4.1111   -1.8190    0.0509 C   0  0  0  0  0  0  0  0  0  0  0  0
    4.8195   -1.7749    1.0845 O   0  0  0  0  0  0  0  0  0  0  0  0
    4.5044   -2.6484   -0.9849 O   0  0  0  0  0  0  0  0  0  0  0  0
    2.4774   -0.1857    0.9377 C   0  0  0  0  0  0  0  0  0  0  0  0
    1.3193    0.5721    0.8121 C   0  0  0  0  0  0  0  0  0  0  0  0
  1  2  1  0
  2  3  1  0
  3  4  1  0
  4  5  1  0
  5  6  1  0
  6  7  1  0
  4  8  1  0
  8  9  2  0
  8 10  2  0
  8 11  1  0
 11 12  2  0
 12 13  1  0
 13 14  2  0
 14 15  1  0
 15 16  2  0
 15 17  1  0
 14 18  1  0
 18 19  2  0
 19 11  1  0
M  END
>  <zinc_id>  (1) 
ZINC000000001982

>  <smiles>  (1) 
CCCN(CCC)S(=O)(=O)c1ccc(C(=O)O)cc1

$$$$
