
     RDKit          3D

 21 23  0  0  0  0  0  0  0  0999 V2000
    3.4029   -1.8385    0.5026 C   0  0  0  0  0  0  0  0  0  0  0  0
    4.1145   -0.5930    0.3415 N   0  0  0  0  0  0  0  0  0  0  0  0
    4.8639   -0.5435   -0.8909 C   0  0  0  0  0  0  0  0  0  0  0  0
    3.3302    0.5832    0.6018 C   0  0  0  0  0  0  0  0  0  0  0  0
    2.2370    0.8274   -0.4207 C   0  0  0  0  0  0  0  0  0  0  0  0
    1.2558   -0.2807   -0.4753 C   0  0  0  0  0  0  0  0  0  0  0  0
   -0.0120   -0.0857   -0.2547 C   0  0  0  0  0  0  0  0  0  0  0  0
   -0.9220   -1.2457   -0.3285 C   0  0  0  0  0  0  0  0  0  0  0  0
   -0.3571   -2.2367   -1.0805 C   0  0  0  0  0  0  0  0  0  0  0  0
   -1.0376   -3.4237   -1.2778 C   0  0  0  0  0  0  0  0  0  0  0  0
   -2.2750   -3.5346   -0.6880 C   0  0  0  0  0  0  0  0  0  0  0  0
   -2.8485   -2.5401    0.0697 C   0  0  0  0  0  0  0  0  0  0  0  0
   -2.1608   -1.3469    0.2663 C   0  0  0  0  0  0  0  0  0  0  0  0
   -2.9530   -0.4072    1.1146 C   0  0  0  0  0  0  0  0  0  0  0  0
   -2.7366    0.9381    0.8350 O   0  0  0  0  0  0  0  0  0  0  0  0
   -1.6519    1.7374    0.5389 C   0  0  0  0  0  0  0  0  0  0  0  0
   -1.8830    3.0795    0.7739 C   0  0  0  0  0  0  0  0  0  0  0  0
   -0.8643    3.9444    0.5072 C   0  0  0  0  0  0  0  0  0  0  0  0
    0.3318    3.5131    0.0305 C   0  0  0  0  0  0  0  0  0  0  0  0
    0.5908    2.1721   -0.2144 C   0  0  0  0  0  0  0  0  0  0  0  0
   -0.4252    1.2812    0.0488 C   0  0  0  0  0  0  0  0  0  0  0  0
  1  2  1  0
  2  3  1  0
  2  4  1  0
  4  5  1  0
  5  6  1  0
  6  7  2  0
  7  8  1  0
  8  9  2  0
  9 10  1  0
 10 11  2  0
 11 12  1  0
 12 13  2  0
 13 14  1  0
 14 15  1  0
 15 16  1  0
 16 17  2  0
 17 18  1  0
 18 19  2  0
 19 20  1  0
 20 21  2  0
 21  7  1  0
 13  8  1  0
 21 16  1  0
M  END
>  <zinc_id>  (1) 
ZINC000000001148

>  <smiles>  (1) 
CN(C)CC/C=C1/c2ccccc2COc2ccccc21

$$$$
