
     RDKit          3D

 24 26  0  0  0  0  0  0  0  0999 V2000
    6.1290    2.0579    1.7659 Cl  0  0  0  0  0  0  0  0  0  0  0  0
    4.7423    1.2406    1.0817 C   0  0  0  0  0  0  0  0  0  0  0  0
    4.1785    1.5459   -0.1091 C   0  0  0  0  0  0  0  0  0  0  0  0
    3.0825    0.8548   -0.6223 C   0  0  0  0  0  0  0  0  0  0  0  0
    2.5323   -0.1842    0.0925 C   0  0  0  0  0  0  0  0  0  0  0  0
    1.3502   -0.9775   -0.3189 C   0  0  0  0  0  0  0  0  0  0  0  0
    0.5606   -0.3206   -1.2121 O   0  0  0  0  0  0  0  0  0  0  0  0
   -0.5853   -1.2663   -1.4564 C   0  0  2  0  0  0  0  0  0  0  0  0
   -1.3891   -0.2999   -2.4410 C   0  0  0  0  0  0  0  0  0  0  0  0
   -1.7691    0.9414   -1.9964 N   0  0  0  0  0  0  0  0  0  0  0  0
   -2.7715    1.5338   -1.3557 C   0  0  0  0  0  0  0  0  0  0  0  0
   -2.5858    2.9209   -1.2929 C   0  0  0  0  0  0  0  0  0  0  0  0
   -1.4554    3.1473   -1.9164 N   0  0  0  0  0  0  0  0  0  0  0  0
   -0.9284    2.0205   -2.3441 C   0  0  0  0  0  0  0  0  0  0  0  0
   -1.3821   -1.1756   -0.1757 C   0  0  0  0  0  0  0  0  0  0  0  0
   -1.3849   -0.1788    0.7243 C   0  0  0  0  0  0  0  0  0  0  0  0
   -2.0382   -0.2019    1.9199 C   0  0  0  0  0  0  0  0  0  0  0  0
   -2.7587   -1.3498    2.2457 C   0  0  0  0  0  0  0  0  0  0  0  0
   -3.6792   -1.5344    3.7362 Cl  0  0  0  0  0  0  0  0  0  0  0  0
   -2.7783   -2.3991    1.3438 C   0  0  0  0  0  0  0  0  0  0  0  0
   -2.1165   -2.3562    0.1447 C   0  0  0  0  0  0  0  0  0  0  0  0
   -2.2551   -3.7327   -0.8960 Cl  0  0  0  0  0  0  0  0  0  0  0  0
    3.1018   -0.4876    1.2793 C   0  0  0  0  0  0  0  0  0  0  0  0
    4.2005    0.2013    1.8030 C   0  0  0  0  0  0  0  0  0  0  0  0
  1  2  1  0
  2  3  2  0
  3  4  1  0
  4  5  2  0
  5  6  1  0
  6  7  1  0
  7  8  1  0
  8  9  1  6
  9 10  1  0
 10 11  1  0
 11 12  2  0
 12 13  1  0
 13 14  2  0
  8 15  1  0
 15 16  2  0
 16 17  1  0
 17 18  2  0
 18 19  1  0
 18 20  1  0
 20 21  2  0
 21 22  1  0
  5 23  1  0
 23 24  2  0
 24  2  1  0
 14 10  1  0
 21 15  1  0
M  END
>  <zinc_id>  (1) 
ZINC000000596881

>  <smiles>  (1) 
Clc1ccc(CO[C@H](Cn2ccnc2)c2ccc(Cl)cc2Cl)cc1

$$$$
