
     RDKit          2D

 32 34  0  0  0  0  0  0  0  0999 V2000
    1.8881   -3.2410    0.0000 N   0  0  0  0  0  0  0  0  0  0  0  0
    3.3876   -3.2027    0.0000 C   0  0  0  0  0  0  0  0  0  0  0  0
    4.1042   -1.8849    0.0000 C   0  0  0  0  0  0  0  0  0  0  0  0
    3.3212   -0.6055    0.0000 O   0  0  0  0  0  0  0  0  0  0  0  0
    4.0378    0.7123    0.0000 C   0  0  0  0  0  0  0  0  0  0  0  0
    3.2549    1.9917    0.0000 O   0  0  0  0  0  0  0  0  0  0  0  0
    1.7554    1.9534    0.0000 C   0  0  0  0  0  0  0  0  0  0  0  0
    0.9724    3.2329    0.0000 C   0  0  0  0  0  0  0  0  0  0  0  0
    1.6890    4.5507    0.0000 N   0  0  0  0  0  0  0  0  0  0  0  0
   -0.5271    3.1946    0.0000 C   0  0  0  0  0  0  0  0  0  0  0  0
   -1.2437    1.8768    0.0000 C   0  0  0  0  0  0  0  0  0  0  0  0
   -2.7432    1.8385    0.0000 N   0  0  0  0  0  0  0  0  0  0  0  0
   -0.4607    0.5974    0.0000 C   0  0  0  0  0  0  0  0  0  0  0  0
   -1.1773   -0.7204    0.0000 O   0  0  0  0  0  0  0  0  0  0  0  0
   -2.6768   -0.7587    0.0000 C   0  0  0  0  0  0  0  0  0  0  0  0
   -3.4597    0.5207    0.0000 O   0  0  0  0  0  0  0  0  0  0  0  0
   -4.9593    0.4824    0.0000 C   0  0  0  0  0  0  0  0  0  0  0  0
   -5.7422    1.7619    0.0000 C   0  0  0  0  0  0  0  0  0  0  0  0
   -5.0256    3.0796    0.0000 O   0  0  0  0  0  0  0  0  0  0  0  0
   -5.6758   -0.8354    0.0000 C   0  0  0  0  0  0  0  0  0  0  0  0
   -7.1753   -0.8737    0.0000 O   0  0  0  0  0  0  0  0  0  0  0  0
   -4.8929   -2.1148    0.0000 C   0  0  0  0  0  0  0  0  0  0  0  0
   -5.6095   -3.4326    0.0000 N   0  0  0  0  0  0  0  0  0  0  0  0
   -3.3934   -2.0765    0.0000 C   0  0  0  0  0  0  0  0  0  0  0  0
   -2.6104   -3.3560    0.0000 O   0  0  0  0  0  0  0  0  0  0  0  0
    1.0388    0.6357    0.0000 C   0  0  0  0  0  0  0  0  0  0  0  0
    1.8217   -0.6438    0.0000 O   0  0  0  0  0  0  0  0  0  0  0  0
    5.5373    0.7506    0.0000 C   0  0  0  0  0  0  0  0  0  0  0  0
    6.2539    2.0684    0.0000 N   0  0  0  0  0  0  0  0  0  0  0  0
    6.3203   -0.5289    0.0000 C   0  0  0  0  0  0  0  0  0  0  0  0
    5.6037   -1.8466    0.0000 C   0  0  0  0  0  0  0  0  0  0  0  0
    6.3866   -3.1261    0.0000 O   0  0  0  0  0  0  0  0  0  0  0  0
  1  2  1  0
  3  2  1  1
  3  4  1  0
  4  5  1  0
  5  6  1  6
  7  6  1  1
  7  8  1  0
  8  9  1  6
  8 10  1  0
 10 11  1  0
 11 12  1  6
 11 13  1  0
 13 14  1  1
 15 14  1  6
 15 16  1  0
 16 17  1  0
 17 18  1  1
 18 19  1  0
 17 20  1  0
 20 21  1  6
 20 22  1  0
 22 23  1  1
 22 24  1  0
 24 25  1  6
 13 26  1  0
 26 27  1  6
  5 28  1  0
 28 29  1  6
 28 30  1  0
 30 31  1  0
 31 32  1  6
 31  3  1  0
 26  7  1  0
 24 15  1  0
M  END
>  <zinc_id>  (1) 
ZINC000008214692

>  <smiles>  (1) 
NC[C@H]1O[C@H](O[C@@H]2[C@@H](N)C[C@@H](N)[C@H](O[C@H]3O[C@H](CO)[C@@H](O)[C@H](N)[C@H]3O)[C@H]2O)[C@H](N)C[C@@H]1O

$$$$
