
     RDKit          3D

 32 35  0  0  0  0  0  0  0  0999 V2000
   -4.6364    1.5399   -3.0238 C   0  0  0  0  0  0  0  0  0  0  0  0
   -4.3082    1.9302   -1.7643 C   0  0  0  0  0  0  0  0  0  0  0  0
   -3.5660    0.8877   -1.0010 C   0  0  0  0  0  0  0  0  0  0  0  0
   -3.3520   -0.1762   -1.6364 O   0  0  0  0  0  0  0  0  0  0  0  0
   -3.1498    1.0970    0.3084 O   0  0  0  0  0  0  0  0  0  0  0  0
   -2.4655    0.0669    0.9170 C   0  0  2  0  0  0  0  0  0  0  0  0
   -3.2424   -1.1375    1.0988 C   0  0  0  0  0  0  0  0  0  0  0  0
   -2.6730   -2.2338    1.4454 O   0  0  0  0  0  0  0  0  0  0  0  0
   -4.6525   -1.4704    0.9865 C   0  0  0  0  0  0  0  0  0  0  0  0
   -5.9081   -0.3612    0.8697 Cl  0  0  0  0  0  0  0  0  0  0  0  0
   -2.0111    0.6184    2.4006 C   0  0  1  0  0  0  0  0  0  0  0  0
   -3.0564   -0.2020    3.3092 C   0  0  0  0  0  0  0  0  0  0  0  0
   -0.8531   -0.5739    2.4715 C   0  0  0  0  0  0  0  0  0  0  0  0
   -0.0834    0.3684    1.4313 C   0  0  1  0  0  0  0  0  0  0  0  0
    1.0680   -0.6745    0.8073 C   0  0  2  0  0  0  0  0  0  0  0  0
    2.0951   -0.4319    2.0107 C   0  0  0  0  0  0  0  0  0  0  0  0
    3.1838   -1.4226    1.5062 C   0  0  0  0  0  0  0  0  0  0  0  0
    3.8474   -0.5949    0.4107 C   0  0  0  0  0  0  0  0  0  0  0  0
    5.0742   -0.2459    0.3900 C   0  0  0  0  0  0  0  0  0  0  0  0
    5.7381    0.5486   -0.6281 C   0  0  0  0  0  0  0  0  0  0  0  0
    6.9555    0.8606   -0.5944 O   0  0  0  0  0  0  0  0  0  0  0  0
    4.8883    0.9802   -1.7302 C   0  0  0  0  0  0  0  0  0  0  0  0
    3.6220    0.6148   -1.7133 C   0  0  0  0  0  0  0  0  0  0  0  0
    2.9466   -0.1830   -0.7324 C   0  0  1  0  0  0  0  0  0  0  0  0
    2.6287   -1.5183   -1.4709 C   0  0  0  0  0  0  0  0  0  0  0  0
    1.7023    0.4324   -0.1639 C   0  0  2  0  0  0  0  0  0  0  0  0
    1.9453    1.5609    0.5371 F   0  0  0  0  0  0  0  0  0  0  0  0
    0.6894    0.7817   -1.3505 C   0  0  1  0  0  0  0  0  0  0  0  0
    0.4406   -0.5988   -1.8541 O   0  0  0  0  0  0  0  0  0  0  0  0
   -0.7132    1.0175   -0.6012 C   0  0  0  0  0  0  0  0  0  0  0  0
   -1.1211   -0.0257    0.2666 C   0  0  2  0  0  0  0  0  0  0  0  0
   -1.0331   -1.4549   -0.0657 C   0  0  0  0  0  0  0  0  0  0  0  0
  1  2  1  0
  2  3  1  0
  3  4  2  0
  3  5  1  0
  6  5  1  6
  6  7  1  0
  7  8  2  0
  7  9  1  0
  9 10  1  0
  6 11  1  0
 11 12  1  1
 11 13  1  0
 14 13  1  1
 14 15  1  0
 15 16  1  1
 16 17  1  0
 17 18  1  0
 18 19  2  0
 19 20  1  0
 20 21  2  0
 20 22  1  0
 22 23  2  0
 23 24  1  0
 24 25  1  6
 24 26  1  0
 26 27  1  1
 26 28  1  0
 28 29  1  6
 28 30  1  0
 30 31  1  0
 31 32  1  6
 31  6  1  0
 31 14  1  0
 26 15  1  0
 24 18  1  0
M  END
>  <zinc_id>  (1) 
ZINC000003977767

>  <smiles>  (1) 
CCC(=O)O[C@]1(C(=O)CCl)[C@@H](C)C[C@H]2[C@@H]3CCC4=CC(=O)C=C[C@]4(C)[C@@]3(F)[C@@H](O)C[C@@]21C

$$$$
