
     RDKit          3D

 23 23  0  0  0  0  0  0  0  0999 V2000
    5.9907    1.2633    0.6343 C   0  0  0  0  0  0  0  0  0  0  0  0
    5.8036    1.4700    0.5453 C   0  0  0  0  0  0  0  0  0  0  0  0
    6.2002    2.3559   -0.6444 C   0  0  0  0  0  0  0  0  0  0  0  0
    4.3419    1.3942    0.4613 N   0  0  0  0  0  0  0  0  0  0  0  0
    3.9660    0.3691   -0.5036 C   0  0  0  0  0  0  0  0  0  0  0  0
    4.4427   -1.0446    0.2186 C   0  0  1  0  0  0  0  0  0  0  0  0
    3.5729   -0.8724    1.4115 O   0  0  0  0  0  0  0  0  0  0  0  0
    3.5562   -1.9777   -0.7213 C   0  0  0  0  0  0  0  0  0  0  0  0
    2.4235   -1.5662   -1.1480 O   0  0  0  0  0  0  0  0  0  0  0  0
    1.2203   -1.2078   -0.6575 C   0  0  0  0  0  0  0  0  0  0  0  0
    0.2122   -0.7780   -1.5628 C   0  0  0  0  0  0  0  0  0  0  0  0
   -1.0361   -0.3983   -1.1678 C   0  0  0  0  0  0  0  0  0  0  0  0
   -1.3610   -0.4227    0.1562 C   0  0  0  0  0  0  0  0  0  0  0  0
   -2.7085   -0.0151    0.6622 C   0  0  0  0  0  0  0  0  0  0  0  0
   -3.5809   -1.1176    0.6085 O   0  0  0  0  0  0  0  0  0  0  0  0
   -4.8119   -0.6207    1.1000 C   0  0  0  0  0  0  0  0  0  0  0  0
   -5.2904    0.5336    0.2281 C   0  0  0  0  0  0  0  0  0  0  0  0
   -5.4381    0.0082   -1.0575 O   0  0  0  0  0  0  0  0  0  0  0  0
   -5.8703    1.0202   -1.9329 C   0  0  0  0  0  0  0  0  0  0  0  0
   -4.7991    2.1183   -1.9162 C   0  0  0  0  0  0  0  0  0  0  0  0
   -7.2062    1.5165   -1.4762 C   0  0  0  0  0  0  0  0  0  0  0  0
   -0.4338   -0.8270    1.0730 C   0  0  0  0  0  0  0  0  0  0  0  0
    0.8062   -1.2013    0.6556 C   0  0  0  0  0  0  0  0  0  0  0  0
  1  2  1  0
  2  3  1  0
  2  4  1  0
  4  5  1  0
  5  6  1  0
  6  7  1  1
  6  8  1  0
  8  9  1  0
  9 10  1  0
 10 11  2  0
 11 12  1  0
 12 13  2  0
 13 14  1  0
 14 15  1  0
 15 16  1  0
 16 17  1  0
 17 18  1  0
 18 19  1  0
 19 20  1  0
 19 21  1  0
 13 22  1  0
 22 23  2  0
 23 10  1  0
M  END
>  <zinc_id>  (1) 
ZINC000001530570

>  <smiles>  (1) 
CC(C)NC[C@@H](O)COc1ccc(COCCOC(C)C)cc1

$$$$
