
     RDKit          3D

 20 23  0  0  0  0  0  0  0  0999 V2000
    3.8636   -1.6712    0.5467 C   0  0  0  0  0  0  0  0  0  0  0  0
    3.1163   -0.4704    0.1429 C   0  0  0  0  0  0  0  0  0  0  0  0
    3.7740    0.6113   -0.3748 C   0  0  0  0  0  0  0  0  0  0  0  0
    3.0268    1.7363   -0.7477 C   0  0  0  0  0  0  0  0  0  0  0  0
    1.6852    1.7713   -0.6068 N   0  0  0  0  0  0  0  0  0  0  0  0
    1.0319    0.7110   -0.0983 C   0  0  0  0  0  0  0  0  0  0  0  0
    1.7532   -0.4290    0.2837 C   0  0  0  0  0  0  0  0  0  0  0  0
    1.2142   -1.6243    0.8346 N   0  0  0  0  0  0  0  0  0  0  0  0
   -0.1197   -2.1208    0.6314 C   0  0  0  0  0  0  0  0  0  0  0  0
   -0.3209   -3.3495    0.6633 O   0  0  0  0  0  0  0  0  0  0  0  0
   -1.3462   -1.3395    0.3774 C   0  0  0  0  0  0  0  0  0  0  0  0
   -2.5077   -2.0780    0.4474 C   0  0  0  0  0  0  0  0  0  0  0  0
   -3.7370   -1.4609    0.2278 C   0  0  0  0  0  0  0  0  0  0  0  0
   -3.7638   -0.1129   -0.0572 C   0  0  0  0  0  0  0  0  0  0  0  0
   -2.6094    0.6197   -0.1265 N   0  0  0  0  0  0  0  0  0  0  0  0
   -1.4344    0.0073    0.0881 C   0  0  0  0  0  0  0  0  0  0  0  0
   -0.3760    0.9460   -0.0319 N   0  0  0  0  0  0  0  0  0  0  0  0
   -0.7969    2.3094   -0.0931 C   0  0  0  0  0  0  0  0  0  0  0  0
   -0.5036    3.1825   -1.2388 C   0  0  0  0  0  0  0  0  0  0  0  0
   -1.9497    2.7618   -0.8682 C   0  0  0  0  0  0  0  0  0  0  0  0
  1  2  1  0
  2  3  2  0
  3  4  1  0
  4  5  2  0
  5  6  1  0
  6  7  2  0
  7  8  1  0
  8  9  1  0
  9 10  2  0
  9 11  1  0
 11 12  2  0
 12 13  1  0
 13 14  2  0
 14 15  1  0
 15 16  2  0
 16 17  1  0
 17 18  1  0
 18 19  1  0
 19 20  1  0
  7  2  1  0
 16 11  1  0
 20 18  1  0
 17  6  1  0
M  END
>  <zinc_id>  (1) 
ZINC000000004778

>  <smiles>  (1) 
Cc1ccnc2c1NC(=O)c1cccnc1N2C1CC1

$$$$
