
     RDKit          3D

 22 23  0  0  0  0  0  0  0  0999 V2000
    0.0651    1.1681    0.4223 C   0  0  0  0  0  0  0  0  0  0  0  0
    0.9033   -0.2054    0.8270 C   0  0  2  0  0  0  0  0  0  0  0  0
    1.0801   -0.6631   -0.7286 C   0  0  0  0  0  0  0  0  0  0  0  0
    1.8308    0.4617   -1.3551 C   0  0  0  0  0  0  0  0  0  0  0  0
    3.1655    0.7177   -0.7332 C   0  0  0  0  0  0  0  0  0  0  0  0
    4.2978    0.0812   -1.1896 C   0  0  0  0  0  0  0  0  0  0  0  0
    5.5596    0.2762   -0.6603 C   0  0  0  0  0  0  0  0  0  0  0  0
    5.6668    1.1761    0.3995 C   0  0  0  0  0  0  0  0  0  0  0  0
    6.9171    1.3886    0.9465 O   0  0  0  0  0  0  0  0  0  0  0  0
    4.5618    1.8246    0.8771 C   0  0  0  0  0  0  0  0  0  0  0  0
    3.3112    1.6054    0.3217 C   0  0  0  0  0  0  0  0  0  0  0  0
   -0.4548   -1.0133    0.9941 N   0  0  0  0  0  0  0  0  0  0  0  0
   -1.0091   -0.2251    2.1114 C   0  0  0  0  0  0  0  0  0  0  0  0
   -2.3902   -0.7923    2.3806 C   0  0  0  0  0  0  0  0  0  0  0  0
   -3.2389   -0.6444    1.1517 C   0  0  0  0  0  0  0  0  0  0  0  0
   -3.9825    0.4963    0.9809 C   0  0  0  0  0  0  0  0  0  0  0  0
   -4.7525    0.6398   -0.1536 C   0  0  0  0  0  0  0  0  0  0  0  0
   -4.7334   -0.3892   -1.0715 C   0  0  0  0  0  0  0  0  0  0  0  0
   -5.5135   -0.2365   -2.2157 O   0  0  0  0  0  0  0  0  0  0  0  0
   -3.9995   -1.5211   -0.9074 C   0  0  0  0  0  0  0  0  0  0  0  0
   -4.0475   -2.4978   -1.8868 O   0  0  0  0  0  0  0  0  0  0  0  0
   -3.2371   -1.6474    0.2301 C   0  0  0  0  0  0  0  0  0  0  0  0
  2  1  1  6
  2  3  1  0
  3  4  1  0
  4  5  1  0
  5  6  2  0
  6  7  1  0
  7  8  2  0
  8  9  1  0
  8 10  1  0
 10 11  2  0
  2 12  1  0
 12 13  1  0
 13 14  1  0
 14 15  1  0
 15 16  2  0
 16 17  1  0
 17 18  2  0
 18 19  1  0
 18 20  1  0
 20 21  1  0
 20 22  2  0
 11  5  1  0
 22 15  1  0
M  END
>  <zinc_id>  (1) 
ZINC000000003911

>  <smiles>  (1) 
C[C@H](CCc1ccc(O)cc1)NCCc1ccc(O)c(O)c1

$$$$
