
     RDKit          3D

 10  9  0  0  0  0  0  0  0  0999 V2000
    2.8030   -1.1350    0.8947 C   0  0  0  0  0  0  0  0  0  0  0  0
    2.2950   -0.2003   -0.2700 C   0  0  2  0  0  0  0  0  0  0  0  0
    2.2045    1.3904    0.7700 S   0  0  0  0  0  0  0  0  0  0  0  0
    0.7994   -0.5367   -0.2239 C   0  0  0  0  0  0  0  0  0  0  0  0
    0.2791   -1.3294    0.5527 O   0  0  0  0  0  0  0  0  0  0  0  0
    0.0168    0.1486   -1.1693 N   0  0  0  0  0  0  0  0  0  0  0  0
   -1.3789    0.0151   -1.3205 C   0  0  0  0  0  0  0  0  0  0  0  0
   -2.0829    0.4344   -0.0942 C   0  0  0  0  0  0  0  0  0  0  0  0
   -1.4560    0.8719    0.8826 O   0  0  0  0  0  0  0  0  0  0  0  0
   -3.4800    0.3410   -0.0221 O   0  0  0  0  0  0  0  0  0  0  0  0
  2  1  1  1
  2  3  1  0
  2  4  1  0
  4  5  2  0
  4  6  1  0
  6  7  1  0
  7  8  1  0
  8  9  2  0
  8 10  1  0
M  END
>  <zinc_id>  (1) 
ZINC000000155905

>  <smiles>  (1) 
C[C@H](S)C(=O)NCC(=O)O

$$$$
