
     RDKit          3D

 18 19  0  0  0  0  0  0  0  0999 V2000
    1.3944   -0.4790    1.6187 C   0  0  0  0  0  0  0  0  0  0  0  0
    1.6229   -0.0639    0.1501 C   0  0  0  0  0  0  0  0  0  0  0  0
    2.6834    0.7368   -0.1783 C   0  0  0  0  0  0  0  0  0  0  0  0
    3.7282    1.3109    0.7592 C   0  0  0  0  0  0  0  0  0  0  0  0
    4.6645    0.1682    1.1022 C   0  0  0  0  0  0  0  0  0  0  0  0
    5.3066   -0.3912    0.0047 O   0  0  0  0  0  0  0  0  0  0  0  0
    2.5165    0.9264   -1.8623 S   0  0  0  0  0  0  0  0  0  0  0  0
    1.1186   -0.0130   -2.0659 C   0  0  0  0  0  0  0  0  0  0  0  0
    0.8260   -0.4438   -0.8304 N   0  0  0  0  0  0  0  0  0  0  0  0
   -0.3606   -1.3414   -0.6588 C   0  0  0  0  0  0  0  0  0  0  0  0
   -1.5573   -0.5615   -0.3381 C   0  0  0  0  0  0  0  0  0  0  0  0
   -1.7721    0.7240   -0.8049 C   0  0  0  0  0  0  0  0  0  0  0  0
   -2.9080    1.3504   -0.4157 N   0  0  0  0  0  0  0  0  0  0  0  0
   -3.8057    0.7752    0.3856 C   0  0  0  0  0  0  0  0  0  0  0  0
   -5.0528    1.4501    0.8209 C   0  0  0  0  0  0  0  0  0  0  0  0
   -3.5876   -0.4888    0.8376 N   0  0  0  0  0  0  0  0  0  0  0  0
   -2.4913   -1.1605    0.4939 C   0  0  0  0  0  0  0  0  0  0  0  0
   -2.3258   -2.4990    0.9815 N   0  0  0  0  0  0  0  0  0  0  0  0
  1  2  1  0
  2  3  2  0
  3  4  1  0
  4  5  1  0
  5  6  1  0
  3  7  1  0
  7  8  1  0
  8  9  2  0
  9 10  1  0
 10 11  1  0
 11 12  2  0
 12 13  1  0
 13 14  2  0
 14 15  1  0
 14 16  1  0
 16 17  2  0
 17 18  1  0
  9  2  1  0
 17 11  1  0
M  CHG  1   9   1
M  END
>  <zinc_id>  (1) 
ZINC000000049153

>  <smiles>  (1) 
Cc1ncc(C[n+]2csc(CCO)c2C)c(N)n1

$$$$
