
     RDKit          3D

 10 10  0  0  0  0  0  0  0  0999 V2000
    2.1241   -1.5367    0.5156 O   0  0  0  0  0  0  0  0  0  0  0  0
    1.6608   -0.3920    0.2185 C   0  0  0  0  0  0  0  0  0  0  0  0
    2.4583    0.7066    0.0298 O   0  0  0  0  0  0  0  0  0  0  0  0
    0.2240   -0.2748    0.0801 C   0  0  0  0  0  0  0  0  0  0  0  0
   -0.5891   -1.3664    0.2660 C   0  0  0  0  0  0  0  0  0  0  0  0
   -1.9455   -1.2026    0.1232 C   0  0  0  0  0  0  0  0  0  0  0  0
   -2.4977    0.0101   -0.1964 C   0  0  0  0  0  0  0  0  0  0  0  0
   -1.6677    1.0743   -0.3747 C   0  0  0  0  0  0  0  0  0  0  0  0
   -0.3151    0.9360   -0.2380 C   0  0  0  0  0  0  0  0  0  0  0  0
    0.5479    2.0455   -0.4241 O   0  0  0  0  0  0  0  0  0  0  0  0
  1  2  2  0
  2  3  1  0
  2  4  1  0
  4  5  2  0
  5  6  1  0
  6  7  2  0
  7  8  1  0
  8  9  2  0
  9 10  1  0
  9  4  1  0
M  END
>  <zinc_id>  (1) 
ZINC000000001554

>  <smiles>  (1) 
O=C(O)c1ccccc1O

$$$$
