
     RDKit          3D

 29 31  0  0  0  0  0  0  0  0999 V2000
   -4.3851    3.8261    1.6810 C   0  0  0  0  0  0  0  0  0  0  0  0
   -4.0171    3.0428    0.7761 O   0  0  0  0  0  0  0  0  0  0  0  0
   -4.4065    1.7073    0.8599 N   0  0  0  0  0  0  0  0  0  0  0  0
   -3.7849    0.8085    0.2187 C   0  0  0  0  0  0  0  0  0  0  0  0
   -2.6645    1.1389   -0.6092 C   0  0  0  0  0  0  0  0  0  0  0  0
   -2.3572    2.3864   -0.6514 O   0  0  0  0  0  0  0  0  0  0  0  0
   -1.8931    0.1943   -1.3655 N   0  0  0  0  0  0  0  0  0  0  0  0
   -0.7488    0.9078   -2.1600 C   0  0  2  0  0  0  0  0  0  0  0  0
    0.1783   -0.3165   -2.4741 C   0  0  0  0  0  0  0  0  0  0  0  0
   -0.0148   -1.2121   -3.2610 O   0  0  0  0  0  0  0  0  0  0  0  0
    1.1211    0.1257   -1.5434 N   0  0  0  0  0  0  0  0  0  0  0  0
    2.3960   -0.0489   -0.9569 C   0  0  0  0  0  0  0  0  0  0  0  0
    3.4818   -0.1969   -1.9493 C   0  0  0  0  0  0  0  0  0  0  0  0
    3.2804   -0.1908   -3.1766 O   0  0  0  0  0  0  0  0  0  0  0  0
    4.7593   -0.3454   -1.4672 O   0  0  0  0  0  0  0  0  0  0  0  0
    2.6580   -0.0807    0.3628 C   0  0  0  0  0  0  0  0  0  0  0  0
    3.8998   -0.2539    0.9379 C   0  0  0  0  0  0  0  0  0  0  0  0
    4.9708   -0.4033    1.4304 O   0  0  0  0  0  0  0  0  0  0  0  0
    6.0310   -1.2722    1.5758 C   0  0  0  0  0  0  0  0  0  0  0  0
    7.1739   -0.9268    2.3371 N   0  0  0  0  0  0  0  0  0  0  0  0
    5.8897   -2.3672    0.9892 O   0  0  0  0  0  0  0  0  0  0  0  0
    1.4999    0.0596    1.3437 C   0  0  0  0  0  0  0  0  0  0  0  0
   -0.1048    0.2690    0.5651 S   0  0  0  0  0  0  0  0  0  0  0  0
    0.3132    1.2879   -0.9643 C   0  0  2  0  0  0  0  0  0  0  0  0
   -4.2362   -0.5522    0.3363 C   0  0  0  0  0  0  0  0  0  0  0  0
   -5.3024   -0.9431    1.1307 C   0  0  0  0  0  0  0  0  0  0  0  0
   -5.4746   -2.3022    1.0204 C   0  0  0  0  0  0  0  0  0  0  0  0
   -4.4746   -2.6922    0.1372 C   0  0  0  0  0  0  0  0  0  0  0  0
   -3.7886   -1.6497   -0.2289 O   0  0  0  0  0  0  0  0  0  0  0  0
  1  2  1  0
  2  3  1  0
  3  4  2  0
  4  5  1  0
  5  6  2  0
  5  7  1  0
  8  7  1  1
  8  9  1  0
  9 10  2  0
  9 11  1  0
 11 12  1  0
 12 13  1  0
 13 14  2  0
 13 15  1  0
 12 16  2  0
 16 17  1  0
 17 18  1  0
 18 19  1  0
 19 20  1  0
 19 21  2  0
 16 22  1  0
 22 23  1  0
 24 23  1  1
  4 25  1  0
 25 26  2  0
 26 27  1  0
 27 28  2  0
 28 29  1  0
 24  8  1  0
 29 25  1  0
 24 11  1  0
M  END
>  <zinc_id>  (1) 
ZINC000003871978

>  <smiles>  (1) 
CO/N=C(\C(=O)N[C@@H]1C(=O)N2C(C(=O)O)=C(COC(N)=O)CS[C@H]12)c1ccco1

$$$$
