
     RDKit          3D

 22 22  0  0  0  0  0  0  0  0999 V2000
   -5.8032   -2.3102    0.3901 C   0  0  0  0  0  0  0  0  0  0  0  0
   -4.9251   -3.2762    0.9198 O   0  0  0  0  0  0  0  0  0  0  0  0
   -3.7858   -2.4994    1.3728 C   0  0  0  0  0  0  0  0  0  0  0  0
   -3.3024   -1.8304    0.1696 C   0  0  0  0  0  0  0  0  0  0  0  0
   -2.1772   -0.9976    0.1381 C   0  0  0  0  0  0  0  0  0  0  0  0
   -1.9768    0.2072    1.0159 C   0  0  0  0  0  0  0  0  0  0  0  0
   -0.6912    0.8109    0.5602 C   0  0  0  0  0  0  0  0  0  0  0  0
   -0.6909    2.0129    0.2032 N   0  0  0  0  0  0  0  0  0  0  0  0
   -1.6110    3.0185    0.1160 O   0  0  0  0  0  0  0  0  0  0  0  0
   -1.1523    4.0748   -0.6594 C   0  0  0  0  0  0  0  0  0  0  0  0
   -2.1396    5.3073   -0.4671 C   0  0  0  0  0  0  0  0  0  0  0  0
   -1.4805    6.3381   -1.3463 N   0  0  0  0  0  0  0  0  0  0  0  0
    0.5314    0.0154    0.4115 C   0  0  0  0  0  0  0  0  0  0  0  0
    1.4920    0.5171   -0.5284 C   0  0  0  0  0  0  0  0  0  0  0  0
    2.6882   -0.0586   -0.6356 C   0  0  0  0  0  0  0  0  0  0  0  0
    3.0506   -1.1381    0.1314 C   0  0  0  0  0  0  0  0  0  0  0  0
    4.4050   -1.7650   -0.1096 C   0  0  0  0  0  0  0  0  0  0  0  0
    4.3641   -2.4713   -1.2776 F   0  0  0  0  0  0  0  0  0  0  0  0
    4.8480   -2.5489    0.9012 F   0  0  0  0  0  0  0  0  0  0  0  0
    5.3433   -0.7653   -0.2620 F   0  0  0  0  0  0  0  0  0  0  0  0
    2.1325   -1.6156    1.0330 C   0  0  0  0  0  0  0  0  0  0  0  0
    0.8809   -1.0256    1.1579 C   0  0  0  0  0  0  0  0  0  0  0  0
  1  2  1  0
  2  3  1  0
  3  4  1  0
  4  5  1  0
  5  6  1  0
  6  7  1  0
  7  8  2  0
  8  9  1  0
  9 10  1  0
 10 11  1  0
 11 12  1  0
  7 13  1  0
 13 14  2  0
 14 15  1  0
 15 16  2  0
 16 17  1  0
 17 18  1  0
 17 19  1  0
 17 20  1  0
 16 21  1  0
 21 22  2  0
 22 13  1  0
M  END
>  <zinc_id>  (1) 
ZINC000003872605

>  <smiles>  (1) 
COCCCC/C(=N\OCCN)c1ccc(C(F)(F)F)cc1

$$$$
