
     RDKit          3D

 33 37  0  0  0  0  0  0  0  0999 V2000
   -6.7259   -2.2218    1.3619 C   0  0  0  0  0  0  0  0  0  0  0  0
   -5.9699   -2.1395    0.0975 C   0  0  0  0  0  0  0  0  0  0  0  0
   -6.3601   -2.7882   -0.9264 O   0  0  0  0  0  0  0  0  0  0  0  0
   -4.7631   -1.3313   -0.0490 C   0  0  0  0  0  0  0  0  0  0  0  0
   -3.5393   -1.8983    0.2230 C   0  0  0  0  0  0  0  0  0  0  0  0
   -3.4263   -3.3140    0.6616 C   0  0  0  0  0  0  0  0  0  0  0  0
   -2.4034   -1.1325    0.0836 C   0  0  0  0  0  0  0  0  0  0  0  0
   -1.1516   -1.6397    0.3398 C   0  0  0  0  0  0  0  0  0  0  0  0
   -0.0929   -0.8317    0.1813 N   0  0  0  0  0  0  0  0  0  0  0  0
   -0.1698    0.4496   -0.2136 C   0  0  0  0  0  0  0  0  0  0  0  0
    0.9824    1.2511   -0.3624 N   0  0  0  0  0  0  0  0  0  0  0  0
    2.2887    0.8015   -0.1193 C   0  0  0  0  0  0  0  0  0  0  0  0
    2.5982   -0.4724    0.2923 C   0  0  0  0  0  0  0  0  0  0  0  0
    3.9003   -0.8674    0.5186 C   0  0  0  0  0  0  0  0  0  0  0  0
    4.9268    0.0340    0.3292 C   0  0  0  0  0  0  0  0  0  0  0  0
    6.2877   -0.3380    0.5533 N   0  0  0  0  0  0  0  0  0  0  0  0
    7.3282    0.6477    0.3397 C   0  0  0  0  0  0  0  0  0  0  0  0
    8.3594    0.1302   -0.6595 C   0  0  0  0  0  0  0  0  0  0  0  0
    8.3405   -1.3195   -0.7122 N   0  0  0  0  0  0  0  0  0  0  0  0
    8.1148   -1.8769    0.6079 C   0  0  0  0  0  0  0  0  0  0  0  0
    6.6660   -1.6577    0.9841 C   0  0  0  0  0  0  0  0  0  0  0  0
    4.5877    1.3046   -0.0838 C   0  0  0  0  0  0  0  0  0  0  0  0
    3.3078    1.6653   -0.2979 N   0  0  0  0  0  0  0  0  0  0  0  0
   -1.3980    0.9324   -0.4604 N   0  0  0  0  0  0  0  0  0  0  0  0
   -2.5218    0.1756   -0.3227 C   0  0  0  0  0  0  0  0  0  0  0  0
   -3.7397    0.7065   -0.5833 N   0  0  0  0  0  0  0  0  0  0  0  0
   -3.7695    2.1119   -1.0120 C   0  0  0  0  0  0  0  0  0  0  0  0
   -3.4665    2.9311    0.2358 C   0  0  0  0  0  0  0  0  0  0  0  0
   -2.5828    4.0666   -0.2254 C   0  0  0  0  0  0  0  0  0  0  0  0
   -2.2708    3.7888   -1.6925 C   0  0  0  0  0  0  0  0  0  0  0  0
   -2.5523    2.3135   -1.8978 C   0  0  0  0  0  0  0  0  0  0  0  0
   -4.8354   -0.0217   -0.4521 C   0  0  0  0  0  0  0  0  0  0  0  0
   -5.9496    0.5402   -0.7136 O   0  0  0  0  0  0  0  0  0  0  0  0
  1  2  1  0
  2  3  2  0
  2  4  1  0
  4  5  2  0
  5  6  1  0
  5  7  1  0
  7  8  2  0
  8  9  1  0
  9 10  2  0
 10 11  1  0
 11 12  1  0
 12 13  2  0
 13 14  1  0
 14 15  2  0
 15 16  1  0
 16 17  1  0
 17 18  1  0
 18 19  1  0
 19 20  1  0
 20 21  1  0
 15 22  1  0
 22 23  2  0
 10 24  1  0
 24 25  2  0
 25 26  1  0
 26 27  1  0
 27 28  1  0
 28 29  1  0
 29 30  1  0
 30 31  1  0
 26 32  1  0
 32 33  2  0
 32  4  1  0
 25  7  1  0
 31 27  1  0
 23 12  1  0
 21 16  1  0
M  END
>  <zinc_id>  (1) 
ZINC000003938686

>  <smiles>  (1) 
CC(=O)c1c(C)c2cnc(Nc3ccc(N4CCNCC4)cn3)nc2n(C2CCCC2)c1=O

$$$$
