
     RDKit          3D

 45 50  0  0  0  0  0  0  0  0999 V2000
   -2.4592    4.9516    1.0871 C   0  0  0  0  0  0  0  0  0  0  0  0
   -2.1498    4.4575    0.9892 C   0  0  0  0  0  0  0  0  0  0  0  0
   -1.4428    3.3508    0.7672 O   0  0  0  0  0  0  0  0  0  0  0  0
   -0.6798    2.8520   -0.2295 C   0  0  0  0  0  0  0  0  0  0  0  0
   -0.4109    3.4604   -1.3672 N   0  0  0  0  0  0  0  0  0  0  0  0
    0.4196    2.5951   -2.0939 C   0  0  0  0  0  0  0  0  0  0  0  0
    0.9867    2.7309   -3.3256 C   0  0  0  0  0  0  0  0  0  0  0  0
    1.8162    1.6795   -3.7972 C   0  0  0  0  0  0  0  0  0  0  0  0
    2.0451    0.5821   -3.0157 C   0  0  0  0  0  0  0  0  0  0  0  0
    1.4908    0.4280   -1.7813 C   0  0  0  0  0  0  0  0  0  0  0  0
    1.9028   -0.5732   -0.7749 C   0  0  0  0  0  0  0  0  0  0  0  0
    1.4693   -1.2330    0.0851 O   0  0  0  0  0  0  0  0  0  0  0  0
    3.3817   -0.8548   -0.8344 O   0  0  0  0  0  0  0  0  0  0  0  0
    3.8912   -1.7135    0.3054 C   0  0  1  0  0  0  0  0  0  0  0  0
    4.5896   -2.9326   -0.6811 C   0  0  0  0  0  0  0  0  0  0  0  0
    5.3468   -0.9566    0.2346 O   0  0  0  0  0  0  0  0  0  0  0  0
    6.2825   -1.3591    1.1206 C   0  0  0  0  0  0  0  0  0  0  0  0
    6.0187   -2.2112    2.0334 O   0  0  0  0  0  0  0  0  0  0  0  0
    7.5601   -0.8981    1.0615 O   0  0  0  0  0  0  0  0  0  0  0  0
    8.6292   -1.3252    1.9546 C   0  0  0  0  0  0  0  0  0  0  0  0
    9.8758   -0.7272    1.4016 C   0  0  0  0  0  0  0  0  0  0  0  0
   10.3553   -1.1822    0.0856 C   0  0  0  0  0  0  0  0  0  0  0  0
    9.9305   -2.4716   -0.4293 C   0  0  0  0  0  0  0  0  0  0  0  0
    8.6992   -2.9933    0.2039 C   0  0  0  0  0  0  0  0  0  0  0  0
    8.7208   -2.8438    1.7297 C   0  0  0  0  0  0  0  0  0  0  0  0
    0.6483    1.4467   -1.3181 C   0  0  0  0  0  0  0  0  0  0  0  0
   -0.0538    1.6563   -0.2103 N   0  0  0  0  0  0  0  0  0  0  0  0
   -0.1754    0.7132    0.9174 C   0  0  0  0  0  0  0  0  0  0  0  0
   -1.6569    0.3463    0.8988 C   0  0  0  0  0  0  0  0  0  0  0  0
   -2.4710    0.6095   -0.1488 C   0  0  0  0  0  0  0  0  0  0  0  0
   -3.8438    0.5670   -0.1219 C   0  0  0  0  0  0  0  0  0  0  0  0
   -4.5511    0.2302    1.0582 C   0  0  0  0  0  0  0  0  0  0  0  0
   -6.0100    0.4188    1.1994 C   0  0  0  0  0  0  0  0  0  0  0  0
   -6.3614    1.6122    1.9252 C   0  0  0  0  0  0  0  0  0  0  0  0
   -7.7003    1.9418    2.1306 C   0  0  0  0  0  0  0  0  0  0  0  0
   -8.6990    1.1370    1.6361 C   0  0  0  0  0  0  0  0  0  0  0  0
   -8.3340    0.0304    0.9633 C   0  0  0  0  0  0  0  0  0  0  0  0
   -6.9481   -0.3568    0.7340 C   0  0  0  0  0  0  0  0  0  0  0  0
   -6.7863   -1.5978   -0.0069 C   0  0  0  0  0  0  0  0  0  0  0  0
   -5.7616   -2.2349   -0.5407 N   0  0  0  0  0  0  0  0  0  0  0  0
   -6.1936   -3.3898   -1.1149 N   0  0  0  0  0  0  0  0  0  0  0  0
   -7.4922   -3.4923   -0.9439 N   0  0  0  0  0  0  0  0  0  0  0  0
   -7.8314   -2.4077   -0.2779 N   0  0  0  0  0  0  0  0  0  0  0  0
   -3.7225   -0.0450    2.1144 C   0  0  0  0  0  0  0  0  0  0  0  0
   -2.3256    0.0024    2.0643 C   0  0  0  0  0  0  0  0  0  0  0  0
  1  2  1  0
  2  3  1  0
  3  4  1  0
  4  5  2  0
  5  6  1  0
  6  7  2  0
  7  8  1  0
  8  9  2  0
  9 10  1  0
 10 11  1  0
 11 12  2  0
 11 13  1  0
 13 14  1  0
 14 15  1  6
 14 16  1  0
 16 17  1  0
 17 18  2  0
 17 19  1  0
 19 20  1  0
 20 21  1  0
 21 22  1  0
 22 23  1  0
 23 24  1  0
 24 25  1  0
 10 26  2  0
 26 27  1  0
 27 28  1  0
 28 29  1  0
 29 30  2  0
 30 31  1  0
 31 32  2  0
 32 33  1  0
 33 34  2  0
 34 35  1  0
 35 36  2  0
 36 37  1  0
 37 38  2  0
 38 39  1  0
 39 40  2  0
 40 41  1  0
 41 42  2  0
 42 43  1  0
 32 44  1  0
 44 45  2  0
 27  4  1  0
 45 29  1  0
 26  6  1  0
 38 33  1  0
 43 39  1  0
 25 20  1  0
M  END
>  <zinc_id>  (1) 
ZINC000004097427

>  <smiles>  (1) 
CCOc1nc2cccc(C(=O)O[C@@H](C)OC(=O)OC3CCCCC3)c2n1Cc1ccc(-c2ccccc2-c2nnn[nH]2)cc1

$$$$
