
     RDKit          3D

 25 28  0  0  0  0  0  0  0  0999 V2000
   -3.5097   -5.5355   -0.2514 C   0  0  0  0  0  0  0  0  0  0  0  0
   -2.1294   -4.6127   -0.4417 S   0  0  0  0  0  0  0  0  0  0  0  0
   -2.5553   -2.8686   -0.2620 C   0  0  0  0  0  0  0  0  0  0  0  0
   -3.8227   -2.4561   -0.0121 C   0  0  0  0  0  0  0  0  0  0  0  0
   -4.0673   -1.1160    0.1113 C   0  0  0  0  0  0  0  0  0  0  0  0
   -3.0640   -0.2238   -0.0138 C   0  0  0  0  0  0  0  0  0  0  0  0
   -1.7737   -0.5970   -0.2653 C   0  0  0  0  0  0  0  0  0  0  0  0
   -1.5315   -1.9734   -0.3905 C   0  0  0  0  0  0  0  0  0  0  0  0
   -0.6614    0.2701   -0.4112 N   0  0  0  0  0  0  0  0  0  0  0  0
    0.6321   -0.3285   -0.6768 C   0  0  0  0  0  0  0  0  0  0  0  0
    1.6565    0.7414   -0.7950 C   0  0  0  0  0  0  0  0  0  0  0  0
    3.0505   -0.1493   -1.0958 C   0  0  1  0  0  0  0  0  0  0  0  0
    3.9805    1.2187   -1.1794 C   0  0  0  0  0  0  0  0  0  0  0  0
    5.3133    0.5903   -1.5967 C   0  0  0  0  0  0  0  0  0  0  0  0
    5.4995   -0.5986   -0.6459 C   0  0  0  0  0  0  0  0  0  0  0  0
    4.7455   -0.2520    0.6141 C   0  0  0  0  0  0  0  0  0  0  0  0
    3.3234   -0.3368    0.4748 N   0  0  0  0  0  0  0  0  0  0  0  0
    2.9658   -1.7542    0.5910 C   0  0  0  0  0  0  0  0  0  0  0  0
   -0.7683    1.6958   -0.3072 C   0  0  0  0  0  0  0  0  0  0  0  0
    0.3974    2.4350   -0.4702 C   0  0  0  0  0  0  0  0  0  0  0  0
    0.4111    3.7904   -0.3918 C   0  0  0  0  0  0  0  0  0  0  0  0
   -0.7844    4.4551   -0.1397 C   0  0  0  0  0  0  0  0  0  0  0  0
   -1.9440    3.7323    0.0233 C   0  0  0  0  0  0  0  0  0  0  0  0
   -1.9174    2.3773   -0.0623 C   0  0  0  0  0  0  0  0  0  0  0  0
   -3.4467    1.4962    0.1569 S   0  0  0  0  0  0  0  0  0  0  0  0
  1  2  1  0
  2  3  1  0
  3  4  2  0
  4  5  1  0
  5  6  2  0
  6  7  1  0
  7  8  2  0
  7  9  1  0
  9 10  1  0
 10 11  1  0
 12 11  1  1
 12 13  1  0
 13 14  1  0
 14 15  1  0
 15 16  1  0
 16 17  1  0
 17 18  1  0
  9 19  1  0
 19 20  2  0
 20 21  1  0
 21 22  2  0
 22 23  1  0
 23 24  2  0
 24 25  1  0
  8  3  1  0
 17 12  1  0
 24 19  1  0
 25  6  1  0
M  END
>  <zinc_id>  (1) 
ZINC000001530697

>  <smiles>  (1) 
CSc1ccc2c(c1)N(CC[C@H]1CCCCN1C)c1ccccc1S2

$$$$
