
     RDKit          3D

  8  8  0  0  0  0  0  0  0  0999 V2000
   -2.3377   -1.0760    0.2189 O   0  0  0  0  0  0  0  0  0  0  0  0
   -1.1942   -0.3366   -0.0566 C   0  0  0  0  0  0  0  0  0  0  0  0
   -1.1861    1.0357   -0.1853 C   0  0  0  0  0  0  0  0  0  0  0  0
   -0.0235    1.7273   -0.4598 C   0  0  0  0  0  0  0  0  0  0  0  0
    1.1879    1.0314   -0.6145 C   0  0  0  0  0  0  0  0  0  0  0  0
    1.1882   -0.3337   -0.4879 C   0  0  0  0  0  0  0  0  0  0  0  0
    2.3458   -1.0547   -0.6305 O   0  0  0  0  0  0  0  0  0  0  0  0
    0.0195   -0.9933   -0.2153 C   0  0  0  0  0  0  0  0  0  0  0  0
  1  2  1  0
  2  3  2  0
  3  4  1  0
  4  5  2  0
  5  6  1  0
  6  7  1  0
  6  8  2  0
  8  2  1  0
M  END
>  <zinc_id>  (1) 
ZINC000000002028

>  <smiles>  (1) 
Oc1cccc(O)c1

$$$$
