
     RDKit          3D

 33 37  0  0  0  0  0  0  0  0999 V2000
   -9.1741    0.0035    3.4736 N   0  0  0  0  0  0  0  0  0  0  0  0
   -8.6682    0.0763    2.4263 C   0  0  0  0  0  0  0  0  0  0  0  0
   -8.0640    0.1707    1.1176 C   0  0  0  0  0  0  0  0  0  0  0  0
   -8.8614    0.1913   -0.0106 C   0  0  0  0  0  0  0  0  0  0  0  0
   -8.3288    0.2840   -1.2752 C   0  0  0  0  0  0  0  0  0  0  0  0
   -6.9650    0.3609   -1.4749 C   0  0  0  0  0  0  0  0  0  0  0  0
   -6.1842    0.4569   -2.5783 N   0  0  0  0  0  0  0  0  0  0  0  0
   -4.8952    0.5021   -2.2307 C   0  0  0  0  0  0  0  0  0  0  0  0
   -4.8606    0.4305   -0.8369 C   0  0  0  0  0  0  0  0  0  0  0  0
   -3.6269    0.4362    0.0194 C   0  0  0  0  0  0  0  0  0  0  0  0
   -2.5157    0.9630   -0.8254 C   0  0  0  0  0  0  0  0  0  0  0  0
   -1.1779    1.0426   -0.2005 C   0  0  0  0  0  0  0  0  0  0  0  0
   -0.5764   -0.2264    0.2851 C   0  0  0  0  0  0  0  0  0  0  0  0
   -0.4038   -1.2240   -0.7656 N   0  0  0  0  0  0  0  0  0  0  0  0
    0.6098   -0.7485   -1.7343 C   0  0  0  0  0  0  0  0  0  0  0  0
    1.6548   -0.0142   -0.9016 C   0  0  0  0  0  0  0  0  0  0  0  0
    2.2361   -0.9466    0.0704 N   0  0  0  0  0  0  0  0  0  0  0  0
    3.6397   -0.8856    0.3290 C   0  0  0  0  0  0  0  0  0  0  0  0
    4.3268   -1.9235    0.9052 C   0  0  0  0  0  0  0  0  0  0  0  0
    5.6843   -1.8654    1.1663 C   0  0  0  0  0  0  0  0  0  0  0  0
    6.3953   -0.7243    0.8410 C   0  0  0  0  0  0  0  0  0  0  0  0
    7.6861   -0.4106    0.9810 O   0  0  0  0  0  0  0  0  0  0  0  0
    7.8824    0.7992    0.5193 C   0  0  0  0  0  0  0  0  0  0  0  0
    9.1441    1.4944    0.4930 C   0  0  0  0  0  0  0  0  0  0  0  0
   10.3187    0.8390    0.9399 N   0  0  0  0  0  0  0  0  0  0  0  0
    9.2152    2.6830    0.0732 O   0  0  0  0  0  0  0  0  0  0  0  0
    6.6648    1.3182    0.0481 C   0  0  0  0  0  0  0  0  0  0  0  0
    5.7243    0.3299    0.2615 C   0  0  0  0  0  0  0  0  0  0  0  0
    4.3561    0.2546    0.0052 C   0  0  0  0  0  0  0  0  0  0  0  0
    1.3665   -1.8770    0.7345 C   0  0  0  0  0  0  0  0  0  0  0  0
    0.2486   -2.3803   -0.1251 C   0  0  0  0  0  0  0  0  0  0  0  0
   -6.1491    0.3417   -0.3535 C   0  0  0  0  0  0  0  0  0  0  0  0
   -6.7025    0.2483    0.9136 C   0  0  0  0  0  0  0  0  0  0  0  0
  1  2  3  0
  2  3  1  0
  3  4  2  0
  4  5  1  0
  5  6  2  0
  6  7  1  0
  7  8  1  0
  8  9  2  0
  9 10  1  0
 10 11  1  0
 11 12  1  0
 12 13  1  0
 13 14  1  0
 14 15  1  0
 15 16  1  0
 16 17  1  0
 17 18  1  0
 18 19  2  0
 19 20  1  0
 20 21  2  0
 21 22  1  0
 22 23  1  0
 23 24  1  0
 24 25  1  0
 24 26  2  0
 23 27  2  0
 27 28  1  0
 28 29  2  0
 17 30  1  0
 30 31  1  0
  9 32  1  0
 32 33  2  0
 33  3  1  0
 32  6  1  0
 31 14  1  0
 29 18  1  0
 28 21  1  0
M  END
>  <zinc_id>  (1) 
ZINC000001542113

>  <smiles>  (1) 
N#Cc1ccc2[nH]cc(CCCCN3CCN(c4ccc5oc(C(N)=O)cc5c4)CC3)c2c1

$$$$
