
     RDKit          3D

 41 44  0  0  0  0  0  0  0  0999 V2000
   -6.6029    0.8014    1.8566 C   0  0  0  0  0  0  0  0  0  0  0  0
   -6.1062    1.7262    0.9864 C   0  0  2  0  0  0  0  0  0  0  0  0
   -6.1837    1.5810   -0.4765 C   0  0  0  0  0  0  0  0  0  0  0  0
   -5.6580    0.2144   -0.7503 C   0  0  0  0  0  0  0  0  0  0  0  0
   -4.0740    0.1370   -0.4563 C   0  0  2  0  0  0  0  0  0  0  0  0
   -3.9884   -1.4419   -0.2718 C   0  0  0  0  0  0  0  0  0  0  0  0
   -4.8448   -2.3115   -0.7534 C   0  0  0  0  0  0  0  0  0  0  0  0
   -4.6702   -3.6614   -0.5040 C   0  0  0  0  0  0  0  0  0  0  0  0
   -3.6088   -4.1189    0.2449 C   0  0  0  0  0  0  0  0  0  0  0  0
   -3.4208   -5.4917    0.5060 O   0  0  0  0  0  0  0  0  0  0  0  0
   -2.7354   -3.1770    0.7301 C   0  0  0  0  0  0  0  0  0  0  0  0
   -2.9005   -1.8054    0.4843 C   0  0  0  0  0  0  0  0  0  0  0  0
   -2.0119   -0.7860    0.9463 C   0  0  0  0  0  0  0  0  0  0  0  0
   -2.6587    0.4710    1.6295 C   0  0  1  0  0  0  0  0  0  0  0  0
   -2.1558    1.5751    0.5904 C   0  0  0  0  0  0  0  0  0  0  0  0
   -0.7130    1.6540    0.4992 C   0  0  0  0  0  0  0  0  0  0  0  0
    0.1433    0.5901    0.0387 C   0  0  0  0  0  0  0  0  0  0  0  0
    0.0349    0.0665   -1.3429 C   0  0  0  0  0  0  0  0  0  0  0  0
    0.9394   -0.9659   -1.6296 C   0  0  0  0  0  0  0  0  0  0  0  0
    2.3792   -0.7931   -1.6618 C   0  0  0  0  0  0  0  0  0  0  0  0
    2.8623    0.1090   -2.7205 C   0  0  0  0  0  0  0  0  0  0  0  0
    2.4683    1.5076   -2.6033 C   0  0  0  0  0  0  0  0  0  0  0  0
    3.0997    2.1658   -1.4163 C   0  0  0  0  0  0  0  0  0  0  0  0
    4.8893    2.1620   -1.6313 S   0  0  0  0  0  0  0  0  0  0  0  0
    5.4310    2.6666   -0.3084 O   0  0  0  0  0  0  0  0  0  0  0  0
    5.3652    0.4359   -1.7516 C   0  0  0  0  0  0  0  0  0  0  0  0
    6.8092    0.1890   -1.9265 C   0  0  0  0  0  0  0  0  0  0  0  0
    7.6397    0.5795   -0.7732 C   0  0  0  0  0  0  0  0  0  0  0  0
    7.4661   -0.1545    0.4883 C   0  0  0  0  0  0  0  0  0  0  0  0
    6.2437   -0.1659    1.0903 F   0  0  0  0  0  0  0  0  0  0  0  0
    8.3270    0.4331    1.4352 F   0  0  0  0  0  0  0  0  0  0  0  0
    7.8638   -1.6364    0.3632 C   0  0  0  0  0  0  0  0  0  0  0  0
    9.1575   -1.7929    0.0046 F   0  0  0  0  0  0  0  0  0  0  0  0
    7.6668   -2.1692    1.6197 F   0  0  0  0  0  0  0  0  0  0  0  0
    7.0114   -2.2505   -0.5008 F   0  0  0  0  0  0  0  0  0  0  0  0
   -4.2403    0.3278    1.2008 C   0  0  1  0  0  0  0  0  0  0  0  0
   -4.5036    1.9596    1.1457 C   0  0  2  0  0  0  0  0  0  0  0  0
   -4.6592    2.1361    2.7303 C   0  0  0  0  0  0  0  0  0  0  0  0
   -5.8099    3.0339    2.9241 C   0  0  0  0  0  0  0  0  0  0  0  0
   -6.4184    3.2568    1.4223 C   0  0  2  0  0  0  0  0  0  0  0  0
   -7.8335    2.9427    1.8487 O   0  0  0  0  0  0  0  0  0  0  0  0
  2  1  1  1
  2  3  1  0
  3  4  1  0
  5  4  1  6
  5  6  1  0
  6  7  2  0
  7  8  1  0
  8  9  2  0
  9 10  1  0
  9 11  1  0
 11 12  2  0
 12 13  1  0
 13 14  1  0
 14 15  1  6
 15 16  1  0
 16 17  1  0
 17 18  1  0
 18 19  1  0
 19 20  1  0
 20 21  1  0
 21 22  1  0
 22 23  1  0
 24 23  1  1
 24 25  2  0
 24 26  1  0
 26 27  1  0
 27 28  1  0
 28 29  1  0
 29 30  1  0
 29 31  1  0
 29 32  1  0
 32 33  1  0
 32 34  1  0
 32 35  1  0
 36 14  1  1
 36 37  1  0
 37 38  1  1
 38 39  1  0
 39 40  1  0
 40 41  1  1
 37  2  1  0
 40  2  1  0
 36  5  1  0
 12  6  1  0
M  END
>  <zinc_id>  (1) 
ZINC000003995809

>  <smiles>  (1) 
C[C@]12CC[C@@H]3c4ccc(O)cc4C[C@@H](CCCCCCCCC[S@@](=O)CCCC(F)(F)C(F)(F)F)[C@H]3[C@@H]1CC[C@@H]2O

$$$$
