
     RDKit          3D

 18 19  0  0  0  0  0  0  0  0999 V2000
   -2.9831   -1.4605   -2.3397 N   0  0  0  0  0  0  0  0  0  0  0  0
   -2.6052   -0.7302   -1.1795 C   0  0  0  0  0  0  0  0  0  0  0  0
   -1.3383   -0.7510   -0.7267 N   0  0  0  0  0  0  0  0  0  0  0  0
   -1.0186   -0.0573    0.3603 C   0  0  0  0  0  0  0  0  0  0  0  0
   -2.0124    0.6818    1.0113 C   0  0  0  0  0  0  0  0  0  0  0  0
   -1.4145    1.2604    2.0439 N   0  0  0  0  0  0  0  0  0  0  0  0
   -0.1153    0.9065    2.0453 C   0  0  0  0  0  0  0  0  0  0  0  0
    0.1511    0.0898    1.0098 N   0  0  0  0  0  0  0  0  0  0  0  0
    1.4496   -0.4819    0.7078 C   0  0  0  0  0  0  0  0  0  0  0  0
    2.1943    0.4622   -0.2089 C   0  0  0  0  0  0  0  0  0  0  0  0
    3.5540   -0.0576   -0.5713 C   0  0  0  0  0  0  0  0  0  0  0  0
    4.4230   -0.2592    0.6527 C   0  0  0  0  0  0  0  0  0  0  0  0
    4.5600    0.9629    1.2857 O   0  0  0  0  0  0  0  0  0  0  0  0
    3.4886   -1.3681   -1.3297 C   0  0  0  0  0  0  0  0  0  0  0  0
    2.7837   -1.2455   -2.5123 O   0  0  0  0  0  0  0  0  0  0  0  0
   -3.3092    0.7045    0.5499 C   0  0  0  0  0  0  0  0  0  0  0  0
   -4.2253    1.3558    1.1082 O   0  0  0  0  0  0  0  0  0  0  0  0
   -3.5824   -0.0126   -0.5522 N   0  0  0  0  0  0  0  0  0  0  0  0
  1  2  1  0
  2  3  2  0
  3  4  1  0
  4  5  2  0
  5  6  1  0
  6  7  2  0
  7  8  1  0
  8  9  1  0
  9 10  1  0
 10 11  1  0
 11 12  1  0
 12 13  1  0
 11 14  1  0
 14 15  1  0
  5 16  1  0
 16 17  2  0
 16 18  1  0
 18  2  1  0
  8  4  1  0
M  END
>  <zinc_id>  (1) 
ZINC000000001899

>  <smiles>  (1) 
Nc1nc2c(ncn2CCC(CO)CO)c(=O)[nH]1

$$$$
