
     RDKit          3D

 23 23  0  0  0  0  0  0  0  0999 V2000
    1.5087   -3.4235    2.2159 C   0  0  0  0  0  0  0  0  0  0  0  0
    0.7867   -2.2509    1.8504 C   0  0  0  0  0  0  0  0  0  0  0  0
    0.0738   -1.8178    2.8206 O   0  0  0  0  0  0  0  0  0  0  0  0
    0.8331   -1.6188    0.5757 N   0  0  0  0  0  0  0  0  0  0  0  0
   -0.0676   -0.3790    0.5287 C   0  0  1  0  0  0  0  0  0  0  0  0
    1.0077    0.5646   -0.3997 C   0  0  2  0  0  0  0  0  0  0  0  0
    1.6355    1.3511    0.9386 C   0  0  2  0  0  0  0  0  0  0  0  0
    2.0544    2.5372    0.1744 O   0  0  0  0  0  0  0  0  0  0  0  0
    3.0670    0.4336    0.8938 C   0  0  2  0  0  0  0  0  0  0  0  0
    3.7971    1.5442    1.6680 O   0  0  0  0  0  0  0  0  0  0  0  0
    3.7297    0.9241   -0.5003 C   0  0  0  0  0  0  0  0  0  0  0  0
    3.2239    0.0030   -1.4057 O   0  0  0  0  0  0  0  0  0  0  0  0
    0.0238    1.6478   -0.7154 O   0  0  0  0  0  0  0  0  0  0  0  0
   -1.3149    1.5655   -0.6903 C   0  0  0  0  0  0  0  0  0  0  0  0
   -2.1422    2.7567   -0.5702 C   0  0  0  0  0  0  0  0  0  0  0  0
   -1.5746    3.8582   -0.4897 O   0  0  0  0  0  0  0  0  0  0  0  0
   -3.4794    2.6636   -0.5472 O   0  0  0  0  0  0  0  0  0  0  0  0
   -1.9129    0.3560   -0.7797 C   0  0  0  0  0  0  0  0  0  0  0  0
   -0.8371   -0.8090   -0.9089 C   0  0  2  0  0  0  0  0  0  0  0  0
   -1.7649   -1.8666   -0.2049 N   0  0  0  0  0  0  0  0  0  0  0  0
   -2.6142   -2.4596   -1.1837 C   0  0  0  0  0  0  0  0  0  0  0  0
   -3.1763   -1.6854   -2.0575 N   0  0  0  0  0  0  0  0  0  0  0  0
   -2.8574   -3.8947   -1.2128 N   0  0  0  0  0  0  0  0  0  0  0  0
  1  2  1  0
  2  3  2  0
  2  4  1  0
  5  4  1  6
  5  6  1  0
  6  7  1  0
  7  8  1  6
  7  9  1  0
  9 10  1  1
  9 11  1  0
 11 12  1  0
  6 13  1  6
 13 14  1  0
 14 15  1  0
 15 16  2  0
 15 17  1  0
 14 18  2  0
 18 19  1  0
 19 20  1  1
 20 21  1  0
 21 22  2  0
 21 23  1  0
 19  5  1  0
M  END
>  <zinc_id>  (1) 
ZINC000003918138

>  <smiles>  (1) 
CC(=O)N[C@@H]1[C@@H](NC(=N)N)C=C(C(=O)O)O[C@H]1[C@H](O)[C@H](O)CO

$$$$
