
     RDKit          3D

 20 21  0  0  0  0  0  0  0  0999 V2000
    2.5076   -3.6481   -1.2726 C   0  0  0  0  0  0  0  0  0  0  0  0
    2.3240   -2.3360   -1.5033 N   0  0  0  0  0  0  0  0  0  0  0  0
    3.6265   -1.6902   -1.6068 C   0  0  0  0  0  0  0  0  0  0  0  0
    1.5201   -1.7213   -0.4969 C   0  0  0  0  0  0  0  0  0  0  0  0
    1.2998   -0.2228   -0.7450 C   0  0  0  0  0  0  0  0  0  0  0  0
    0.4240    0.2292    0.4340 C   0  0  1  0  0  0  0  0  0  0  0  0
    1.1964   -0.0564    1.5686 O   0  0  0  0  0  0  0  0  0  0  0  0
    0.1702    1.6552    0.4105 C   0  0  0  0  0  0  0  0  0  0  0  0
   -0.6146    2.2495    1.3604 C   0  0  0  0  0  0  0  0  0  0  0  0
   -0.8678    3.5969    1.3766 C   0  0  0  0  0  0  0  0  0  0  0  0
   -0.3195    4.3934    0.4091 C   0  0  0  0  0  0  0  0  0  0  0  0
    0.4746    3.8417   -0.5645 C   0  0  0  0  0  0  0  0  0  0  0  0
    0.7197    2.4590   -0.5604 C   0  0  0  0  0  0  0  0  0  0  0  0
   -0.7465   -0.6577    0.4390 C   0  0  0  0  0  0  0  0  0  0  0  0
   -0.9068   -1.5123    1.5182 C   0  0  0  0  0  0  0  0  0  0  0  0
   -1.9786   -2.3697    1.5987 C   0  0  0  0  0  0  0  0  0  0  0  0
   -2.9215   -2.3900    0.5912 C   0  0  0  0  0  0  0  0  0  0  0  0
   -2.7586   -1.5399   -0.4786 C   0  0  0  0  0  0  0  0  0  0  0  0
   -1.6924   -0.6823   -0.5657 C   0  0  0  0  0  0  0  0  0  0  0  0
   -1.4565    0.4020   -1.9125 Cl  0  0  0  0  0  0  0  0  0  0  0  0
  1  2  1  0
  2  3  1  0
  2  4  1  0
  4  5  1  0
  5  6  1  0
  6  7  1  1
  6  8  1  0
  8  9  2  0
  9 10  1  0
 10 11  2  0
 11 12  1  0
 12 13  2  0
  6 14  1  0
 14 15  2  0
 15 16  1  0
 16 17  2  0
 17 18  1  0
 18 19  2  0
 19 20  1  0
 13  8  1  0
 19 14  1  0
M  END
>  <zinc_id>  (1) 
ZINC000000057253

>  <smiles>  (1) 
CN(C)CC[C@@](O)(c1ccccc1)c1ccccc1Cl

$$$$
