
     RDKit          3D

 33 36  0  0  0  0  0  0  0  0999 V2000
    1.7913    0.4603   -2.3609 C   0  0  0  0  0  0  0  0  0  0  0  0
    2.8418   -0.2667   -1.5815 C   0  0  0  0  0  0  0  0  0  0  0  0
    2.4621   -0.2885   -0.1394 C   0  0  0  0  0  0  0  0  0  0  0  0
    1.3305    0.2694    0.3889 N   0  0  0  0  0  0  0  0  0  0  0  0
    1.2749    0.0441    1.6851 N   0  0  0  0  0  0  0  0  0  0  0  0
    0.2094    0.4841    2.6082 C   0  0  0  0  0  0  0  0  0  0  0  0
   -0.8445   -0.6008    2.6567 C   0  0  0  0  0  0  0  0  0  0  0  0
   -1.3822   -0.7836    1.2529 C   0  0  0  0  0  0  0  0  0  0  0  0
   -1.9676    0.4756    0.7881 N   0  0  0  0  0  0  0  0  0  0  0  0
   -2.4841    0.3252   -0.5422 C   0  0  0  0  0  0  0  0  0  0  0  0
   -3.8806    0.8326   -0.7257 C   0  0  0  0  0  0  0  0  0  0  0  0
   -4.7190    0.2317    0.2693 N   0  0  0  0  0  0  0  0  0  0  0  0
   -6.0718   -0.0337    0.0030 C   0  0  0  0  0  0  0  0  0  0  0  0
   -6.9268   -0.6114    0.9301 C   0  0  0  0  0  0  0  0  0  0  0  0
   -8.2490   -0.8692    0.6650 C   0  0  0  0  0  0  0  0  0  0  0  0
   -8.7308   -0.5336   -0.5798 C   0  0  0  0  0  0  0  0  0  0  0  0
   -7.9156    0.0461   -1.5411 C   0  0  0  0  0  0  0  0  0  0  0  0
   -8.6370    0.4274   -3.0813 Cl  0  0  0  0  0  0  0  0  0  0  0  0
   -6.6099    0.2779   -1.2186 C   0  0  0  0  0  0  0  0  0  0  0  0
   -4.1617   -0.0993    1.5495 C   0  0  0  0  0  0  0  0  0  0  0  0
   -2.9742    0.8485    1.7636 C   0  0  0  0  0  0  0  0  0  0  0  0
    2.3569   -0.6536    2.0091 C   0  0  0  0  0  0  0  0  0  0  0  0
    2.6631   -1.0591    3.1437 O   0  0  0  0  0  0  0  0  0  0  0  0
    3.0971   -0.8619    0.8818 N   0  0  0  0  0  0  0  0  0  0  0  0
    4.3473   -1.5646    0.9528 C   0  0  0  0  0  0  0  0  0  0  0  0
    5.4815   -0.7606    1.3911 C   0  0  0  0  0  0  0  0  0  0  0  0
    5.8912    0.2792    0.6154 O   0  0  0  0  0  0  0  0  0  0  0  0
    6.4214    0.2512   -0.6611 C   0  0  0  0  0  0  0  0  0  0  0  0
    6.7706    1.4551   -1.2792 C   0  0  0  0  0  0  0  0  0  0  0  0
    7.2989    1.4535   -2.5423 C   0  0  0  0  0  0  0  0  0  0  0  0
    7.5073    0.2746   -3.2526 C   0  0  0  0  0  0  0  0  0  0  0  0
    7.1693   -0.9157   -2.6587 C   0  0  0  0  0  0  0  0  0  0  0  0
    6.6401   -0.8939   -1.3899 C   0  0  0  0  0  0  0  0  0  0  0  0
  1  2  1  0
  2  3  1  0
  3  4  2  0
  4  5  1  0
  5  6  1  0
  6  7  1  0
  7  8  1  0
  8  9  1  0
  9 10  1  0
 10 11  1  0
 11 12  1  0
 12 13  1  0
 13 14  2  0
 14 15  1  0
 15 16  2  0
 16 17  1  0
 17 18  1  0
 17 19  2  0
 12 20  1  0
 20 21  1  0
  5 22  1  0
 22 23  2  0
 22 24  1  0
 24 25  1  0
 25 26  1  0
 26 27  1  0
 27 28  1  0
 28 29  2  0
 29 30  1  0
 30 31  2  0
 31 32  1  0
 32 33  2  0
 24  3  1  0
 33 28  1  0
 21  9  1  0
 19 13  1  0
M  END
>  <zinc_id>  (1) 
ZINC000000538065

>  <smiles>  (1) 
CCc1nn(CCCN2CCN(c3cccc(Cl)c3)CC2)c(=O)n1CCOc1ccccc1

$$$$
