
     RDKit          2D

 46 53  0  0  0  0  0  0  0  0999 V2000
    9.4787    0.5873    0.0000 C   0  0  0  0  0  0  0  0  0  0  0  0
    8.2391   -0.2572    0.0000 O   0  0  0  0  0  0  0  0  0  0  0  0
    6.8878    0.3940    0.0000 C   0  0  0  0  0  0  0  0  0  0  0  0
    5.6482   -0.4505    0.0000 C   0  0  0  0  0  0  0  0  0  0  0  0
    4.2970    0.2007    0.0000 C   0  0  0  0  0  0  0  0  0  0  0  0
    3.0573   -0.6438    0.0000 C   0  0  0  0  0  0  0  0  0  0  0  0
    1.7061    0.0074    0.0000 C   0  0  0  0  0  0  0  0  0  0  0  0
    1.5945    1.5033    0.0000 C   0  0  0  0  0  0  0  0  0  0  0  0
    0.2432    2.1545    0.0000 C   0  0  0  0  0  0  0  0  0  0  0  0
   -0.9964    1.3100    0.0000 C   0  0  0  0  0  0  0  0  0  0  0  0
   -0.8848   -0.1859    0.0000 C   0  0  0  0  0  0  0  0  0  0  0  0
    0.4664   -0.8371    0.0000 C   0  0  0  0  0  0  0  0  0  0  0  0
    0.5780   -2.3330    0.0000 C   0  0  0  0  0  0  0  0  0  0  0  0
   -0.6616   -3.1776    0.0000 O   0  0  0  0  0  0  0  0  0  0  0  0
   -2.0128   -2.5263    0.0000 C   0  0  0  0  0  0  0  0  0  0  0  0
   -2.1244   -1.0304    0.0000 O   0  0  0  0  0  0  0  0  0  0  0  0
   -3.4757   -0.3792    0.0000 C   0  0  0  0  0  0  0  0  0  0  0  0
   -3.5873    1.1167    0.0000 C   0  0  0  0  0  0  0  0  0  0  0  0
   -4.9385    1.7679    0.0000 O   0  0  0  0  0  0  0  0  0  0  0  0
   -6.1782    0.9234    0.0000 C   0  0  0  0  0  0  0  0  0  0  0  0
   -7.5294    1.5746    0.0000 C   0  0  0  0  0  0  0  0  0  0  0  0
   -7.7967    3.0506    0.0000 C   0  0  0  0  0  0  0  0  0  0  0  0
   -9.2831    3.2525    0.0000 C   0  0  0  0  0  0  0  0  0  0  0  0
   -9.9344    1.9012    0.0000 C   0  0  0  0  0  0  0  0  0  0  0  0
   -8.8505    0.8643    0.0000 S   0  0  0  0  0  0  0  0  0  0  0  0
   -6.0666   -0.5725    0.0000 O   0  0  0  0  0  0  0  0  0  0  0  0
   -4.7153   -1.2237    0.0000 C   0  0  0  0  0  0  0  0  0  0  0  0
   -4.6037   -2.7196    0.0000 C   0  0  0  0  0  0  0  0  0  0  0  0
   -5.8433   -3.5642    0.0000 O   0  0  0  0  0  0  0  0  0  0  0  0
   -3.2525   -3.3709    0.0000 C   0  0  0  0  0  0  0  0  0  0  0  0
   -3.1409   -4.8667    0.0000 O   0  0  0  0  0  0  0  0  0  0  0  0
    1.9293   -2.9843    0.0000 C   0  0  0  0  0  0  0  0  0  0  0  0
    2.3494   -4.4242    0.0000 C   0  0  0  0  0  0  0  0  0  0  0  0
    3.8488   -4.4696    0.0000 O   0  0  0  0  0  0  0  0  0  0  0  0
    4.3552   -3.0577    0.0000 C   0  0  0  0  0  0  0  0  0  0  0  0
    5.7952   -2.6375    0.0000 O   0  0  0  0  0  0  0  0  0  0  0  0
    3.1689   -2.1397    0.0000 C   0  0  0  0  0  0  0  0  0  0  0  0
   -2.1827    2.2280    0.0000 O   0  0  0  0  0  0  0  0  0  0  0  0
   -1.6762    3.6399    0.0000 C   0  0  0  0  0  0  0  0  0  0  0  0
   -0.1769    3.5945    0.0000 O   0  0  0  0  0  0  0  0  0  0  0  0
    4.1853    1.6966    0.0000 C   0  0  0  0  0  0  0  0  0  0  0  0
    5.4250    2.5411    0.0000 C   0  0  0  0  0  0  0  0  0  0  0  0
    5.3134    4.0370    0.0000 O   0  0  0  0  0  0  0  0  0  0  0  0
    6.5530    4.8816    0.0000 C   0  0  0  0  0  0  0  0  0  0  0  0
    6.7762    1.8899    0.0000 C   0  0  0  0  0  0  0  0  0  0  0  0
    8.0159    2.7344    0.0000 O   0  0  0  0  0  0  0  0  0  0  0  0
  1  2  1  0
  2  3  1  0
  3  4  2  0
  4  5  1  0
  6  5  1  1
  6  7  1  0
  7  8  2  0
  8  9  1  0
  9 10  2  0
 10 11  1  0
 11 12  2  0
 12 13  1  0
 13 14  1  6
 15 14  1  1
 15 16  1  0
 16 17  1  0
 17 18  1  1
 18 19  1  0
 19 20  1  0
 20 21  1  1
 21 22  2  0
 22 23  1  0
 23 24  2  0
 24 25  1  0
 20 26  1  0
 27 26  1  6
 27 28  1  0
 28 29  1  1
 28 30  1  0
 30 31  1  6
 13 32  1  0
 32 33  1  6
 33 34  1  0
 34 35  1  0
 35 36  2  0
 37 35  1  1
 10 38  1  0
 38 39  1  0
 39 40  1  0
  5 41  2  0
 41 42  1  0
 42 43  1  0
 43 44  1  0
 42 45  2  0
 45 46  1  0
 45  3  1  0
 37  6  1  0
 12  7  1  0
 30 15  1  0
 37 32  1  0
 40  9  1  0
 27 17  1  0
 25 21  1  0
M  END
>  <zinc_id>  (1) 
ZINC000004099008

>  <smiles>  (1) 
COc1cc([C@@H]2c3cc4c(cc3[C@@H](O[C@@H]3O[C@@H]5CO[C@H](c6cccs6)O[C@H]5[C@H](O)[C@H]3O)[C@H]3COC(=O)[C@H]23)OCO4)cc(OC)c1O

$$$$
