
     RDKit          3D

 34 36  0  0  0  0  0  0  0  0999 V2000
    6.3663   -0.1380   -2.9948 C   0  0  0  0  0  0  0  0  0  0  0  0
    6.3531   -1.4491   -2.2258 C   0  0  0  0  0  0  0  0  0  0  0  0
    5.3691   -1.4138   -1.1123 C   0  0  0  0  0  0  0  0  0  0  0  0
    4.3366   -2.2164   -0.9609 C   0  0  0  0  0  0  0  0  0  0  0  0
    3.9286   -3.3375   -1.8744 C   0  0  0  0  0  0  0  0  0  0  0  0
    3.5941   -1.8696    0.2669 C   0  0  0  0  0  0  0  0  0  0  0  0
    4.3084   -0.7588    0.8349 N   0  0  0  0  0  0  0  0  0  0  0  0
    3.9457   -0.0783    2.0536 C   0  0  0  0  0  0  0  0  0  0  0  0
    4.6474    0.8901    2.4628 O   0  0  0  0  0  0  0  0  0  0  0  0
    2.8103   -0.4803    2.8024 N   0  0  0  0  0  0  0  0  0  0  0  0
    2.4673    0.2192    4.0226 C   0  0  0  0  0  0  0  0  0  0  0  0
    2.2010    1.6782    3.7389 C   0  0  0  0  0  0  0  0  0  0  0  0
    1.0748    1.8491    2.7804 C   0  0  0  0  0  0  0  0  0  0  0  0
    1.2960    1.8948    1.4205 C   0  0  0  0  0  0  0  0  0  0  0  0
    0.2403    2.0547    0.5272 C   0  0  0  0  0  0  0  0  0  0  0  0
   -1.0613    2.1733    0.9612 C   0  0  0  0  0  0  0  0  0  0  0  0
   -2.3963    2.3750   -0.1573 S   0  0  0  0  0  0  0  0  0  0  0  0
   -3.4782    3.1236    0.5694 O   0  0  0  0  0  0  0  0  0  0  0  0
   -1.9878    3.2066   -1.3271 O   0  0  0  0  0  0  0  0  0  0  0  0
   -3.0408    0.8443   -0.6341 N   0  0  0  0  0  0  0  0  0  0  0  0
   -3.9048    0.2829    0.1408 C   0  0  0  0  0  0  0  0  0  0  0  0
   -4.2831    0.9180    1.3158 O   0  0  0  0  0  0  0  0  0  0  0  0
   -4.4645   -0.9944   -0.2240 N   0  0  0  0  0  0  0  0  0  0  0  0
   -3.9340   -1.7227   -1.3442 C   0  0  2  0  0  0  0  0  0  0  0  0
   -4.0436   -0.9504   -2.6450 C   0  0  0  0  0  0  0  0  0  0  0  0
   -5.2508   -1.3877   -3.4465 C   0  0  0  0  0  0  0  0  0  0  0  0
   -6.4714   -1.4647   -2.5418 C   0  0  1  0  0  0  0  0  0  0  0  0
   -7.6810   -1.8933   -3.3278 C   0  0  0  0  0  0  0  0  0  0  0  0
   -6.2517   -2.4707   -1.4350 C   0  0  0  0  0  0  0  0  0  0  0  0
   -4.8224   -2.9615   -1.5230 C   0  0  0  0  0  0  0  0  0  0  0  0
   -1.2726    2.1262    2.3282 C   0  0  0  0  0  0  0  0  0  0  0  0
   -0.2256    1.9672    3.2226 C   0  0  0  0  0  0  0  0  0  0  0  0
    5.4057   -0.4695   -0.0088 C   0  0  0  0  0  0  0  0  0  0  0  0
    6.2251    0.4535    0.2172 O   0  0  0  0  0  0  0  0  0  0  0  0
  1  2  1  0
  2  3  1  0
  3  4  2  0
  4  5  1  0
  4  6  1  0
  6  7  1  0
  7  8  1  0
  8  9  2  0
  8 10  1  0
 10 11  1  0
 11 12  1  0
 12 13  1  0
 13 14  2  0
 14 15  1  0
 15 16  2  0
 16 17  1  0
 17 18  2  0
 17 19  2  0
 17 20  1  0
 20 21  2  0
 21 22  1  0
 21 23  1  0
 24 23  1  1
 24 25  1  0
 25 26  1  0
 26 27  1  0
 27 28  1  6
 27 29  1  0
 29 30  1  0
 16 31  1  0
 31 32  2  0
  7 33  1  0
 33 34  2  0
 33  3  1  0
 32 13  1  0
 30 24  1  0
M  END
>  <zinc_id>  (1) 
ZINC000000537791

>  <smiles>  (1) 
CCC1=C(C)CN(C(=O)NCCc2ccc(S(=O)(=O)/N=C(\O)NC3CCC(C)CC3)cc2)C1=O

$$$$
