
     RDKit          3D

 22 22  0  0  0  0  0  0  0  0999 V2000
    6.0798   -1.1671    0.3180 C   0  0  0  0  0  0  0  0  0  0  0  0
    5.0011   -0.5665    0.1892 C   0  0  0  0  0  0  0  0  0  0  0  0
    4.9699    0.7119    0.2003 O   0  0  0  0  0  0  0  0  0  0  0  0
    3.7656   -1.1725    0.0263 O   0  0  0  0  0  0  0  0  0  0  0  0
    2.5575   -0.4944   -0.1183 C   0  0  0  0  0  0  0  0  0  0  0  0
    1.7767   -0.2048    0.9798 C   0  0  0  0  0  0  0  0  0  0  0  0
    2.2187   -0.6171    2.3459 C   0  0  0  0  0  0  0  0  0  0  0  0
    0.5654    0.4751    0.8391 C   0  0  0  0  0  0  0  0  0  0  0  0
    0.1344    0.8654   -0.3982 C   0  0  0  0  0  0  0  0  0  0  0  0
   -1.0851    1.5522   -0.5548 O   0  0  0  0  0  0  0  0  0  0  0  0
   -1.8859    1.8449    0.5984 C   0  0  0  0  0  0  0  0  0  0  0  0
   -2.1615    0.2743    1.1356 C   0  0  1  0  0  0  0  0  0  0  0  0
   -2.9978    0.7898    2.3324 O   0  0  0  0  0  0  0  0  0  0  0  0
   -3.5373    0.1447    0.1781 C   0  0  0  0  0  0  0  0  0  0  0  0
   -4.3375   -0.8028    0.9335 N   0  0  0  0  0  0  0  0  0  0  0  0
   -5.5645   -0.9725    0.1946 C   0  0  0  0  0  0  0  0  0  0  0  0
   -5.3916   -1.5509   -1.1761 C   0  0  0  0  0  0  0  0  0  0  0  0
   -6.4664    0.2120    0.2374 C   0  0  0  0  0  0  0  0  0  0  0  0
    0.9000    0.5855   -1.5088 C   0  0  0  0  0  0  0  0  0  0  0  0
    0.4589    0.9967   -2.8683 C   0  0  0  0  0  0  0  0  0  0  0  0
    2.0934   -0.0869   -1.3496 C   0  0  0  0  0  0  0  0  0  0  0  0
    2.9062   -0.3835   -2.5342 C   0  0  0  0  0  0  0  0  0  0  0  0
  1  2  1  0
  2  3  2  0
  2  4  1  0
  4  5  1  0
  5  6  2  0
  6  7  1  0
  6  8  1  0
  8  9  2  0
  9 10  1  0
 10 11  1  0
 11 12  1  0
 12 13  1  1
 12 14  1  0
 14 15  1  0
 15 16  1  0
 16 17  1  0
 16 18  1  0
  9 19  1  0
 19 20  1  0
 19 21  2  0
 21 22  1  0
 21  5  1  0
M  END
>  <zinc_id>  (1) 
ZINC000000389149

>  <smiles>  (1) 
CC(=O)Oc1c(C)cc(OC[C@@H](O)CNC(C)C)c(C)c1C

$$$$
