
     RDKit          3D

 24 26  0  0  0  0  0  0  0  0999 V2000
   -2.9392    4.8607    1.1819 C   0  0  0  0  0  0  0  0  0  0  0  0
   -2.6522    3.5324    0.8168 N   0  0  0  0  0  0  0  0  0  0  0  0
   -2.8780    3.4311   -0.6155 C   0  0  0  0  0  0  0  0  0  0  0  0
   -1.3067    3.2519    1.2035 C   0  0  0  0  0  0  0  0  0  0  0  0
   -0.8266    1.8821    0.8936 C   0  0  0  0  0  0  0  0  0  0  0  0
   -0.8444    1.5139   -0.5523 C   0  0  0  0  0  0  0  0  0  0  0  0
   -0.3183    0.0802   -0.6603 C   0  0  1  0  0  0  0  0  0  0  0  0
   -1.1699   -0.8622    0.1098 C   0  0  0  0  0  0  0  0  0  0  0  0
   -0.8830   -2.1937    0.0202 C   0  0  0  0  0  0  0  0  0  0  0  0
   -1.6277   -3.1376    0.7056 C   0  0  0  0  0  0  0  0  0  0  0  0
   -2.6920   -2.7495    1.5063 C   0  0  0  0  0  0  0  0  0  0  0  0
   -3.4318   -3.6612    2.1846 F   0  0  0  0  0  0  0  0  0  0  0  0
   -2.9543   -1.3945    1.5740 C   0  0  0  0  0  0  0  0  0  0  0  0
   -2.2201   -0.4648    0.8984 C   0  0  0  0  0  0  0  0  0  0  0  0
   -0.2259   -0.3235   -1.9700 O   0  0  0  0  0  0  0  0  0  0  0  0
    0.8660   -1.1641   -2.1018 C   0  0  0  0  0  0  0  0  0  0  0  0
    1.8007   -0.7317   -1.0344 C   0  0  0  0  0  0  0  0  0  0  0  0
    3.1405   -0.9444   -0.8020 C   0  0  0  0  0  0  0  0  0  0  0  0
    3.7900   -0.4123    0.3014 C   0  0  0  0  0  0  0  0  0  0  0  0
    5.1949   -0.6373    0.5420 C   0  0  0  0  0  0  0  0  0  0  0  0
    6.3326   -0.8211    0.7464 N   0  0  0  0  0  0  0  0  0  0  0  0
    3.0625    0.3475    1.1799 C   0  0  0  0  0  0  0  0  0  0  0  0
    1.7140    0.5659    0.9529 C   0  0  0  0  0  0  0  0  0  0  0  0
    1.0689    0.0323   -0.1509 C   0  0  0  0  0  0  0  0  0  0  0  0
  1  2  1  0
  2  3  1  0
  2  4  1  0
  4  5  1  0
  5  6  1  0
  7  6  1  6
  7  8  1  0
  8  9  2  0
  9 10  1  0
 10 11  2  0
 11 12  1  0
 11 13  1  0
 13 14  2  0
  7 15  1  0
 15 16  1  0
 16 17  1  0
 17 18  2  0
 18 19  1  0
 19 20  1  0
 20 21  3  0
 19 22  2  0
 22 23  1  0
 23 24  2  0
 24  7  1  0
 14  8  1  0
 24 17  1  0
M  END
>  <zinc_id>  (1) 
ZINC000003800706

>  <smiles>  (1) 
CN(C)CCC[C@@]1(c2ccc(F)cc2)OCc2cc(C#N)ccc21

$$$$
