
     RDKit          3D

 25 27  0  0  0  0  0  0  0  0999 V2000
   -3.4892   -1.7327   -0.3469 C   0  0  0  0  0  0  0  0  0  0  0  0
   -4.0234   -0.6411   -0.7297 N   0  0  0  0  0  0  0  0  0  0  0  0
   -3.5456    0.1132   -1.9059 C   0  0  0  0  0  0  0  0  0  0  0  0
   -2.1913    0.7017   -1.6800 C   0  0  0  0  0  0  0  0  0  0  0  0
   -1.2598   -0.3181   -1.4139 O   0  0  0  0  0  0  0  0  0  0  0  0
    0.0857   -0.0387   -1.1661 C   0  0  0  0  0  0  0  0  0  0  0  0
    0.5724    1.2534   -1.1691 C   0  0  0  0  0  0  0  0  0  0  0  0
    1.9124    1.4643   -0.9169 C   0  0  0  0  0  0  0  0  0  0  0  0
    2.8020    0.4389   -0.6591 C   0  0  0  0  0  0  0  0  0  0  0  0
    4.2246    0.7847   -0.4009 C   0  0  0  0  0  0  0  0  0  0  0  0
    4.2694    0.9868    1.1807 C   0  0  2  0  0  0  0  0  0  0  0  0
    6.1503    1.4100    1.2371 S   0  0  0  0  0  0  0  0  0  0  0  0
    6.6688   -0.1905    0.6578 C   0  0  0  0  0  0  0  0  0  0  0  0
    7.7945   -0.4796    0.2358 O   0  0  0  0  0  0  0  0  0  0  0  0
    5.5583   -1.0202    0.7812 N   0  0  0  0  0  0  0  0  0  0  0  0
    4.5235   -0.5012    1.5449 C   0  0  0  0  0  0  0  0  0  0  0  0
    3.8121   -1.0445    2.4350 O   0  0  0  0  0  0  0  0  0  0  0  0
    2.3182   -0.8489   -0.6560 C   0  0  0  0  0  0  0  0  0  0  0  0
    0.9627   -1.0704   -0.9102 C   0  0  0  0  0  0  0  0  0  0  0  0
   -5.1253   -0.0726   -0.0429 C   0  0  0  0  0  0  0  0  0  0  0  0
   -5.6232   -0.7263    1.0625 C   0  0  0  0  0  0  0  0  0  0  0  0
   -6.6966   -0.2024    1.7582 C   0  0  0  0  0  0  0  0  0  0  0  0
   -7.2466    0.9821    1.3151 C   0  0  0  0  0  0  0  0  0  0  0  0
   -6.7486    1.6263    0.2181 C   0  0  0  0  0  0  0  0  0  0  0  0
   -5.7055    1.0837   -0.4287 N   0  0  0  0  0  0  0  0  0  0  0  0
  1  2  1  0
  2  3  1  0
  3  4  1  0
  4  5  1  0
  5  6  1  0
  6  7  2  0
  7  8  1  0
  8  9  2  0
  9 10  1  0
 11 10  1  6
 11 12  1  0
 12 13  1  0
 13 14  2  0
 13 15  1  0
 15 16  1  0
 16 17  2  0
  9 18  1  0
 18 19  2  0
  2 20  1  0
 20 21  2  0
 21 22  1  0
 22 23  2  0
 23 24  1  0
 24 25  2  0
 19  6  1  0
 25 20  1  0
 16 11  1  0
M  END
>  <zinc_id>  (1) 
ZINC000000968328

>  <smiles>  (1) 
CN(CCOc1ccc(C[C@@H]2SC(=O)NC2=O)cc1)c1ccccn1

$$$$
