
     RDKit          3D

  7  6  0  0  0  0  0  0  0  0999 V2000
   -0.7254    1.8444    0.0357 N   0  0  0  0  0  0  0  0  0  0  0  0
    0.1051    0.7114   -0.6450 C   0  0  1  0  0  0  0  0  0  0  0  0
    1.1930    0.6226    0.5762 C   0  0  0  0  0  0  0  0  0  0  0  0
    2.3175   -0.6633    0.0304 S   0  0  0  0  0  0  0  0  0  0  0  0
   -0.7650   -0.5099   -0.1159 C   0  0  0  0  0  0  0  0  0  0  0  0
   -0.2888   -1.5953   -0.5394 O   0  0  0  0  0  0  0  0  0  0  0  0
   -1.8364   -0.4100    0.6581 O   0  0  0  0  0  0  0  0  0  0  0  0
  2  1  1  1
  2  3  1  0
  3  4  1  0
  2  5  1  0
  5  6  2  0
  5  7  1  0
M  END
>  <zinc_id>  (1) 
ZINC000000895042

>  <smiles>  (1) 
N[C@@H](CS)C(=O)O

$$$$
