
     RDKit          3D

 28 30  0  0  0  0  0  0  0  0999 V2000
   -0.4537   -1.0346    2.5568 C   0  0  0  0  0  0  0  0  0  0  0  0
   -0.3940   -0.1381    1.5841 O   0  0  0  0  0  0  0  0  0  0  0  0
   -1.0964   -0.2925    0.4280 C   0  0  0  0  0  0  0  0  0  0  0  0
   -2.1359    0.8542    0.4145 C   0  0  0  0  0  0  0  0  0  0  0  0
   -2.5872    1.3059    1.5855 C   0  0  0  0  0  0  0  0  0  0  0  0
   -3.4198    2.4392    1.6829 C   0  0  0  0  0  0  0  0  0  0  0  0
   -3.6849    3.0555    0.4721 C   0  0  0  0  0  0  0  0  0  0  0  0
   -3.2294    2.5840   -0.7271 C   0  0  0  0  0  0  0  0  0  0  0  0
   -2.4194    1.4260   -0.8025 C   0  0  0  0  0  0  0  0  0  0  0  0
   -1.7492   -1.4790    0.0468 C   0  0  0  0  0  0  0  0  0  0  0  0
   -2.3341   -2.2729    1.0589 C   0  0  0  0  0  0  0  0  0  0  0  0
   -3.0591   -3.4023    0.7040 C   0  0  0  0  0  0  0  0  0  0  0  0
   -3.1876   -3.7070   -0.6006 C   0  0  0  0  0  0  0  0  0  0  0  0
   -2.6077   -3.0051   -1.6118 C   0  0  0  0  0  0  0  0  0  0  0  0
   -1.8945   -1.8644   -1.2657 C   0  0  0  0  0  0  0  0  0  0  0  0
   -0.1430    0.2426   -0.7867 C   0  0  2  0  0  0  0  0  0  0  0  0
    0.9835   -0.5854   -0.5118 O   0  0  0  0  0  0  0  0  0  0  0  0
    2.3383   -0.3552   -0.4960 C   0  0  0  0  0  0  0  0  0  0  0  0
    2.8567    0.8739   -0.3259 N   0  0  0  0  0  0  0  0  0  0  0  0
    4.1918    1.2115   -0.2165 C   0  0  0  0  0  0  0  0  0  0  0  0
    4.6871    2.5273    0.1740 C   0  0  0  0  0  0  0  0  0  0  0  0
    5.1196    0.1260   -0.3680 C   0  0  0  0  0  0  0  0  0  0  0  0
    4.5377   -1.1085   -0.6198 C   0  0  0  0  0  0  0  0  0  0  0  0
    5.5201   -2.2706   -0.6988 C   0  0  0  0  0  0  0  0  0  0  0  0
    3.2517   -1.3140   -0.6542 N   0  0  0  0  0  0  0  0  0  0  0  0
    0.2020    1.6581   -0.2582 C   0  0  0  0  0  0  0  0  0  0  0  0
    0.4306    2.4195   -1.2764 O   0  0  0  0  0  0  0  0  0  0  0  0
    0.2769    2.1059    0.9858 O   0  0  0  0  0  0  0  0  0  0  0  0
  1  2  1  0
  2  3  1  0
  3  4  1  0
  4  5  2  0
  5  6  1  0
  6  7  2  0
  7  8  1  0
  8  9  2  0
  3 10  1  0
 10 11  2  0
 11 12  1  0
 12 13  2  0
 13 14  1  0
 14 15  2  0
  3 16  1  0
 16 17  1  1
 17 18  1  0
 18 19  2  0
 19 20  1  0
 20 21  1  0
 20 22  2  0
 22 23  1  0
 23 24  1  0
 23 25  2  0
 16 26  1  0
 26 27  2  0
 26 28  1  0
  9  4  1  0
 15 10  1  0
 25 18  1  0
M  END
>  <zinc_id>  (1) 
ZINC000000538627

>  <smiles>  (1) 
COC(c1ccccc1)(c1ccccc1)[C@H](Oc1nc(C)cc(C)n1)C(=O)O

$$$$
