
     RDKit          3D

 22 23  0  0  0  0  0  0  0  0999 V2000
    0.1386    1.7874    0.8297 C   0  0  0  0  0  0  0  0  0  0  0  0
   -1.0040    0.5849    0.5576 C   0  0  1  0  0  0  0  0  0  0  0  0
   -0.8897    0.7957   -1.1051 C   0  0  0  0  0  0  0  0  0  0  0  0
   -1.9029   -0.2507   -1.5972 C   0  0  0  0  0  0  0  0  0  0  0  0
   -3.2384    0.1170   -1.0149 C   0  0  0  0  0  0  0  0  0  0  0  0
   -3.5823   -0.4046    0.2102 C   0  0  0  0  0  0  0  0  0  0  0  0
   -4.7881   -0.1100    0.8103 C   0  0  0  0  0  0  0  0  0  0  0  0
   -5.6612    0.7402    0.1362 C   0  0  0  0  0  0  0  0  0  0  0  0
   -6.8910    1.0532    0.7277 O   0  0  0  0  0  0  0  0  0  0  0  0
   -5.3282    1.2649   -1.0842 C   0  0  0  0  0  0  0  0  0  0  0  0
   -4.1213    0.9533   -1.6555 C   0  0  0  0  0  0  0  0  0  0  0  0
    0.1382   -0.5466    0.5340 N   0  0  0  0  0  0  0  0  0  0  0  0
    0.6719   -0.4541    1.8977 C   0  0  0  0  0  0  0  0  0  0  0  0
    1.7784   -1.4690    1.9695 C   0  0  0  0  0  0  0  0  0  0  0  0
    2.8353   -1.1282    0.9475 C   0  0  0  0  0  0  0  0  0  0  0  0
    2.7856   -1.6279   -0.3318 C   0  0  0  0  0  0  0  0  0  0  0  0
    3.7591   -1.3012   -1.2442 C   0  0  0  0  0  0  0  0  0  0  0  0
    4.8222   -0.4689   -0.9345 C   0  0  0  0  0  0  0  0  0  0  0  0
    5.8078   -0.1375   -1.8557 O   0  0  0  0  0  0  0  0  0  0  0  0
    4.8563    0.0245    0.3565 C   0  0  0  0  0  0  0  0  0  0  0  0
    5.9281    0.8720    0.6905 O   0  0  0  0  0  0  0  0  0  0  0  0
    3.8859   -0.2948    1.2830 C   0  0  0  0  0  0  0  0  0  0  0  0
  2  1  1  1
  2  3  1  0
  3  4  1  0
  4  5  1  0
  5  6  2  0
  6  7  1  0
  7  8  2  0
  8  9  1  0
  8 10  1  0
 10 11  2  0
  2 12  1  0
 12 13  1  0
 13 14  1  0
 14 15  1  0
 15 16  2  0
 16 17  1  0
 17 18  2  0
 18 19  1  0
 18 20  1  0
 20 21  1  0
 20 22  2  0
 11  5  1  0
 22 15  1  0
M  END
>  <zinc_id>  (1) 
ZINC000000057278

>  <smiles>  (1) 
C[C@@H](CCc1ccc(O)cc1)NCCc1ccc(O)c(O)c1

$$$$
