
     RDKit          3D

 28 31  0  0  0  0  0  0  0  0999 V2000
    4.0687   -1.3842   -1.1798 C   0  0  0  0  0  0  0  0  0  0  0  0
    3.2339   -0.1011   -1.6860 C   0  0  1  0  0  0  0  0  0  0  0  0
    1.8214   -0.8480   -2.0310 C   0  0  0  0  0  0  0  0  0  0  0  0
    0.8959    0.1803   -1.2088 C   0  0  1  0  0  0  0  0  0  0  0  0
   -0.3614   -0.8393   -0.8092 C   0  0  2  0  0  0  0  0  0  0  0  0
   -1.1390   -0.6423   -2.1998 C   0  0  0  0  0  0  0  0  0  0  0  0
   -2.5493   -1.1228   -1.9762 C   0  0  0  0  0  0  0  0  0  0  0  0
   -3.1261   -0.4675   -0.7495 C   0  0  0  0  0  0  0  0  0  0  0  0
   -4.3591   -0.0673   -0.8564 C   0  0  0  0  0  0  0  0  0  0  0  0
   -5.0757    0.5888    0.2227 C   0  0  0  0  0  0  0  0  0  0  0  0
   -6.2540    0.9913    0.1783 O   0  0  0  0  0  0  0  0  0  0  0  0
   -4.3164    0.7742    1.4472 C   0  0  0  0  0  0  0  0  0  0  0  0
   -3.0955    0.3554    1.4955 C   0  0  0  0  0  0  0  0  0  0  0  0
   -2.3003   -0.3061    0.4928 C   0  0  1  0  0  0  0  0  0  0  0  0
   -2.1727   -1.7929    0.9146 C   0  0  0  0  0  0  0  0  0  0  0  0
   -1.1650    0.3245   -0.0034 C   0  0  2  0  0  0  0  0  0  0  0  0
   -1.4819    1.3535   -0.8420 F   0  0  0  0  0  0  0  0  0  0  0  0
   -0.1178    1.0680    0.9355 C   0  0  1  0  0  0  0  0  0  0  0  0
   -0.8565    0.9576    2.2410 O   0  0  0  0  0  0  0  0  0  0  0  0
    0.8474   -0.1966    1.2625 C   0  0  0  0  0  0  0  0  0  0  0  0
    1.6976   -0.2865    0.1311 C   0  0  1  0  0  0  0  0  0  0  0  0
    1.7634   -1.8260    0.0959 C   0  0  0  0  0  0  0  0  0  0  0  0
    2.8099    0.4684   -0.2255 C   0  0  2  0  0  0  0  0  0  0  0  0
    2.5238    1.7512   -0.7417 O   0  0  0  0  0  0  0  0  0  0  0  0
    3.9341    0.6735    0.6399 C   0  0  0  0  0  0  0  0  0  0  0  0
    4.4481    1.7636    0.8147 O   0  0  0  0  0  0  0  0  0  0  0  0
    4.6412   -0.3649    1.4430 C   0  0  0  0  0  0  0  0  0  0  0  0
    5.6853    0.0615    2.1944 O   0  0  0  0  0  0  0  0  0  0  0  0
  2  1  1  1
  2  3  1  0
  4  3  1  6
  4  5  1  0
  5  6  1  6
  6  7  1  0
  7  8  1  0
  8  9  2  0
  9 10  1  0
 10 11  2  0
 10 12  1  0
 12 13  2  0
 13 14  1  0
 14 15  1  1
 14 16  1  0
 16 17  1  6
 16 18  1  0
 18 19  1  1
 18 20  1  0
 20 21  1  0
 21 22  1  6
 21 23  1  0
 23 24  1  6
 23 25  1  0
 25 26  2  0
 25 27  1  0
 27 28  1  0
 23  2  1  0
 21  4  1  0
 16  5  1  0
 14  8  1  0
M  END
>  <zinc_id>  (1) 
ZINC000003876136

>  <smiles>  (1) 
C[C@H]1C[C@H]2[C@@H]3CCC4=CC(=O)C=C[C@]4(C)[C@@]3(F)[C@@H](O)C[C@]2(C)[C@@]1(O)C(=O)CO

$$$$
