
     RDKit          3D

 18 19  0  0  0  0  0  0  0  0999 V2000
    4.8189   -1.2009   -0.9822 Cl  0  0  0  0  0  0  0  0  0  0  0  0
    3.2731   -0.5628   -0.4627 C   0  0  0  0  0  0  0  0  0  0  0  0
    2.5155    0.2043   -1.3201 C   0  0  0  0  0  0  0  0  0  0  0  0
    1.2988    0.7015   -0.8988 C   0  0  0  0  0  0  0  0  0  0  0  0
    0.8683    0.4375    0.3268 C   0  0  0  0  0  0  0  0  0  0  0  0
   -0.5263    0.9812    0.8906 C   0  0  2  0  0  0  0  0  0  0  0  0
   -1.4390   -0.1138    0.1353 C   0  0  0  0  0  0  0  0  0  0  0  0
   -1.8565    0.0588   -1.1046 C   0  0  0  0  0  0  0  0  0  0  0  0
   -2.6238   -0.9168   -1.7031 C   0  0  0  0  0  0  0  0  0  0  0  0
   -2.9472   -2.0658   -0.9968 C   0  0  0  0  0  0  0  0  0  0  0  0
   -2.5035   -2.2210    0.2848 C   0  0  0  0  0  0  0  0  0  0  0  0
   -1.7321   -1.2261    0.8690 C   0  0  0  0  0  0  0  0  0  0  0  0
   -1.2070   -1.4822    2.5173 Cl  0  0  0  0  0  0  0  0  0  0  0  0
   -0.6905    2.2316   -0.1726 C   0  0  0  0  0  0  0  0  0  0  0  0
   -2.2359    2.9476    0.3449 Cl  0  0  0  0  0  0  0  0  0  0  0  0
    0.5939    3.3757    0.2418 Cl  0  0  0  0  0  0  0  0  0  0  0  0
    1.5897   -0.3209    1.2117 C   0  0  0  0  0  0  0  0  0  0  0  0
    2.8035   -0.8280    0.8186 C   0  0  0  0  0  0  0  0  0  0  0  0
  1  2  1  0
  2  3  2  0
  3  4  1  0
  4  5  2  0
  5  6  1  0
  6  7  1  0
  7  8  2  0
  8  9  1  0
  9 10  2  0
 10 11  1  0
 11 12  2  0
 12 13  1  0
  6 14  1  6
 14 15  1  0
 14 16  1  0
  5 17  1  0
 17 18  2  0
 18  2  1  0
 12  7  1  0
M  END
>  <zinc_id>  (1) 
ZINC000001530725

>  <smiles>  (1) 
Clc1ccc([C@H](c2ccccc2Cl)C(Cl)Cl)cc1

$$$$
