
     RDKit          3D

 16 17  0  0  0  0  0  0  0  0999 V2000
    4.3331    0.1490   -0.2674 N   0  0  0  0  0  0  0  0  0  0  0  0
    3.1187    0.1708   -0.0305 C   0  0  0  0  0  0  0  0  0  0  0  0
    2.2710    1.0149   -0.6944 N   0  0  0  0  0  0  0  0  0  0  0  0
    0.9179    1.0237   -0.4148 C   0  0  0  0  0  0  0  0  0  0  0  0
    0.2311    1.8404   -1.0856 O   0  0  0  0  0  0  0  0  0  0  0  0
    0.4157    0.2130    0.5034 N   0  0  0  0  0  0  0  0  0  0  0  0
   -1.1044    0.2981    0.7421 C   0  0  2  0  0  0  0  0  0  0  0  0
   -1.3421   -1.3678    1.0194 C   0  0  0  0  0  0  0  0  0  0  0  0
   -3.1039   -1.2878    0.4801 S   0  0  0  0  0  0  0  0  0  0  0  0
   -2.9033    0.4525   -0.3769 C   0  0  2  0  0  0  0  0  0  0  0  0
   -3.5474   -0.0414   -1.7871 C   0  0  0  0  0  0  0  0  0  0  0  0
   -4.9033    0.2298   -1.5851 O   0  0  0  0  0  0  0  0  0  0  0  0
   -1.4933    0.0969   -0.7653 O   0  0  0  0  0  0  0  0  0  0  0  0
    1.1867   -0.6129    1.1653 C   0  0  0  0  0  0  0  0  0  0  0  0
    2.5613   -0.6543    0.9138 C   0  0  0  0  0  0  0  0  0  0  0  0
    3.3623   -1.5248    1.6140 F   0  0  0  0  0  0  0  0  0  0  0  0
  1  2  1  0
  2  3  2  0
  3  4  1  0
  4  5  2  0
  4  6  1  0
  7  6  1  6
  7  8  1  0
  8  9  1  0
  9 10  1  0
 10 11  1  6
 11 12  1  0
 10 13  1  0
  6 14  1  0
 14 15  2  0
 15 16  1  0
 15  2  1  0
 13  7  1  0
M  END
>  <zinc_id>  (1) 
ZINC000003629271

>  <smiles>  (1) 
Nc1nc(=O)n([C@@H]2CS[C@H](CO)O2)cc1F

$$$$
