
     RDKit          3D

  6  5  0  0  0  0  0  0  0  0999 V2000
    2.0255   -0.7462    0.1942 O   0  0  0  0  0  0  0  0  0  0  0  0
    1.1262    0.0212   -0.4377 C   0  0  0  0  0  0  0  0  0  0  0  0
    0.1669    0.6609    0.6470 C   0  0  1  0  0  0  0  0  0  0  0  0
   -0.9213    1.6341   -0.5552 S   0  0  0  0  0  0  0  0  0  0  0  0
   -0.7962   -0.5694    0.8385 C   0  0  0  0  0  0  0  0  0  0  0  0
   -1.6011   -1.0006   -0.6868 S   0  0  0  0  0  0  0  0  0  0  0  0
  1  2  1  0
  3  2  1  0
  3  4  1  6
  3  5  1  0
  5  6  1  0
M  END
>  <zinc_id>  (1) 
ZINC000000901555

>  <smiles>  (1) 
OC[C@@H](S)CS

$$$$
