
     RDKit          3D

 19 20  0  0  0  0  0  0  0  0999 V2000
    5.7731   -1.2585   -0.5505 C   0  0  0  0  0  0  0  0  0  0  0  0
    5.0915   -0.1227   -0.5161 C   0  0  0  0  0  0  0  0  0  0  0  0
    5.9872    1.0633   -0.8460 C   0  0  0  0  0  0  0  0  0  0  0  0
    4.3911    0.1636    0.6954 N   0  0  0  0  0  0  0  0  0  0  0  0
    3.3845   -0.8376    0.9416 C   0  0  0  0  0  0  0  0  0  0  0  0
    2.2810   -0.5803   -0.2796 C   0  0  2  0  0  0  0  0  0  0  0  0
    2.0090    0.8802    0.1842 O   0  0  0  0  0  0  0  0  0  0  0  0
    0.9972   -1.1340    0.6812 C   0  0  0  0  0  0  0  0  0  0  0  0
   -0.0576   -0.4242    0.1029 O   0  0  0  0  0  0  0  0  0  0  0  0
   -1.3635   -0.5223    0.5306 C   0  0  0  0  0  0  0  0  0  0  0  0
   -1.7997   -1.3093    1.5604 C   0  0  0  0  0  0  0  0  0  0  0  0
   -3.1104   -1.3723    1.9490 C   0  0  0  0  0  0  0  0  0  0  0  0
   -4.0410   -0.6140    1.2804 C   0  0  0  0  0  0  0  0  0  0  0  0
   -3.6464    0.1977    0.2308 C   0  0  0  0  0  0  0  0  0  0  0  0
   -4.5627    0.9684   -0.4584 C   0  0  0  0  0  0  0  0  0  0  0  0
   -4.1921    1.7816   -1.5047 C   0  0  0  0  0  0  0  0  0  0  0  0
   -2.8621    1.8180   -1.8658 C   0  0  0  0  0  0  0  0  0  0  0  0
   -1.9473    1.0573   -1.1883 C   0  0  0  0  0  0  0  0  0  0  0  0
   -2.3316    0.2450   -0.1401 C   0  0  0  0  0  0  0  0  0  0  0  0
  1  2  1  0
  2  3  1  0
  2  4  1  0
  4  5  1  0
  5  6  1  0
  6  7  1  1
  6  8  1  0
  8  9  1  0
  9 10  1  0
 10 11  2  0
 11 12  1  0
 12 13  2  0
 13 14  1  0
 14 15  2  0
 15 16  1  0
 16 17  2  0
 17 18  1  0
 18 19  2  0
 19 10  1  0
 19 14  1  0
M  END
>  <zinc_id>  (1) 
ZINC000000056556

>  <smiles>  (1) 
CC(C)NC[C@H](O)COc1cccc2ccccc12

$$$$
