
     RDKit          2D

 31 35  0  0  0  0  0  0  0  0999 V2000
   -8.4084    0.4661    0.0000 C   0  0  0  0  0  0  0  0  0  0  0  0
   -6.9114    0.3722    0.0000 C   0  0  0  0  0  0  0  0  0  0  0  0
   -6.2442   -0.9713    0.0000 C   0  0  0  0  0  0  0  0  0  0  0  0
   -4.7472   -1.0652    0.0000 C   0  0  0  0  0  0  0  0  0  0  0  0
   -3.9432   -2.3316    0.0000 O   0  0  0  0  0  0  0  0  0  0  0  0
   -2.4904   -1.9583    0.0000 C   0  0  0  0  0  0  0  0  0  0  0  0
   -1.0956   -2.5102    0.0000 C   0  0  0  0  0  0  0  0  0  0  0  0
   -0.1397   -1.3543    0.0000 C   0  0  0  0  0  0  0  0  0  0  0  0
    1.3590   -1.2913    0.0000 C   0  0  0  0  0  0  0  0  0  0  0  0
    2.1629   -2.5576    0.0000 C   0  0  0  0  0  0  0  0  0  0  0  0
    3.6616   -2.4945    0.0000 C   0  0  0  0  0  0  0  0  0  0  0  0
    4.3563   -1.1651    0.0000 C   0  0  0  0  0  0  0  0  0  0  0  0
    5.8550   -1.1020    0.0000 C   0  0  0  0  0  0  0  0  0  0  0  0
    6.5497    0.2274    0.0000 C   0  0  0  0  0  0  0  0  0  0  0  0
    8.0484    0.2904    0.0000 O   0  0  0  0  0  0  0  0  0  0  0  0
    5.7458    1.4937    0.0000 C   0  0  0  0  0  0  0  0  0  0  0  0
    4.2471    1.4307    0.0000 C   0  0  0  0  0  0  0  0  0  0  0  0
    3.5524    0.1012    0.0000 C   0  0  0  0  0  0  0  0  0  0  0  0
    2.7484    1.3676    0.0000 C   0  0  0  0  0  0  0  0  0  0  0  0
    2.0537    0.0382    0.0000 C   0  0  0  0  0  0  0  0  0  0  0  0
    1.2498    1.3045    0.0000 C   0  0  0  0  0  0  0  0  0  0  0  0
    1.9445    2.6340    0.0000 O   0  0  0  0  0  0  0  0  0  0  0  0
   -0.2489    1.2415    0.0000 C   0  0  0  0  0  0  0  0  0  0  0  0
   -0.9436   -0.0880    0.0000 C   0  0  0  0  0  0  0  0  0  0  0  0
   -1.2730    0.6380    0.0000 C   0  0  0  0  0  0  0  0  0  0  0  0
   -2.3965   -0.4612    0.0000 C   0  0  0  0  0  0  0  0  0  0  0  0
   -2.3025    1.0358    0.0000 C   0  0  0  0  0  0  0  0  0  0  0  0
   -1.5886    1.3904    0.0000 O   0  0  0  0  0  0  0  0  0  0  0  0
   -3.5520    1.8657    0.0000 C   0  0  0  0  0  0  0  0  0  0  0  0
   -3.4581    3.3627    0.0000 O   0  0  0  0  0  0  0  0  0  0  0  0
   -3.7912    0.0907    0.0000 O   0  0  0  0  0  0  0  0  0  0  0  0
  1  2  1  0
  2  3  1  0
  4  3  1  6
  4  5  1  0
  5  6  1  0
  6  7  1  1
  8  7  1  6
  8  9  1  0
  9 10  1  1
 10 11  1  0
 11 12  1  0
 12 13  2  0
 13 14  1  0
 14 15  2  0
 14 16  1  0
 16 17  2  0
 17 18  1  0
 18 19  1  6
 18 20  1  0
 20 21  1  6
 21 22  1  6
 21 23  1  0
 23 24  1  0
 24 25  1  6
 24 26  1  0
 26 27  1  6
 27 28  2  0
 27 29  1  0
 29 30  1  0
 26 31  1  0
 31  4  1  0
 26  6  1  0
 24  8  1  0
 20  9  1  0
 18 12  1  0
M  END
>  <zinc_id>  (1) 
ZINC000004097286

>  <smiles>  (1) 
CCC[C@H]1O[C@@H]2C[C@H]3[C@@H]4CCC5=CC(=O)C=C[C@]5(C)[C@H]4[C@@H](O)C[C@]3(C)[C@]2(C(=O)CO)O1

$$$$
