
     RDKit          3D

 22 24  0  0  0  0  0  0  0  0999 V2000
   -1.3986   -3.3886    0.5226 C   0  0  0  0  0  0  0  0  0  0  0  0
   -0.2892   -2.4807    0.2624 N   0  0  0  0  0  0  0  0  0  0  0  0
    0.8542   -2.9858    0.9558 C   0  0  0  0  0  0  0  0  0  0  0  0
    2.0197   -2.0951    0.7205 C   0  0  0  0  0  0  0  0  0  0  0  0
    2.0171   -1.0181   -0.0030 C   0  0  0  0  0  0  0  0  0  0  0  0
    3.1726   -0.1739   -0.2101 C   0  0  0  0  0  0  0  0  0  0  0  0
    4.3811   -0.4634    0.3606 C   0  0  0  0  0  0  0  0  0  0  0  0
    5.4374    0.3746    0.1268 C   0  0  0  0  0  0  0  0  0  0  0  0
    5.3164    1.4931   -0.6621 C   0  0  0  0  0  0  0  0  0  0  0  0
    4.1007    1.7957   -1.2439 C   0  0  0  0  0  0  0  0  0  0  0  0
    3.0491    0.9389   -0.9959 C   0  0  0  0  0  0  0  0  0  0  0  0
   -0.6165   -1.1266    0.6959 C   0  0  0  0  0  0  0  0  0  0  0  0
   -1.8057   -0.6322   -0.0307 C   0  0  0  0  0  0  0  0  0  0  0  0
   -2.4789   -1.3791   -0.9764 C   0  0  0  0  0  0  0  0  0  0  0  0
   -3.5798   -0.8389   -1.6064 C   0  0  0  0  0  0  0  0  0  0  0  0
   -4.0606    0.4263   -1.3458 C   0  0  0  0  0  0  0  0  0  0  0  0
   -3.3719    1.1767   -0.3855 C   0  0  0  0  0  0  0  0  0  0  0  0
   -3.7729    2.4495   -0.0549 C   0  0  0  0  0  0  0  0  0  0  0  0
   -3.1147    3.2113    0.8864 C   0  0  0  0  0  0  0  0  0  0  0  0
   -2.0137    2.6701    1.5159 C   0  0  0  0  0  0  0  0  0  0  0  0
   -1.5779    1.3969    1.2139 C   0  0  0  0  0  0  0  0  0  0  0  0
   -2.2679    0.6494    0.2537 C   0  0  0  0  0  0  0  0  0  0  0  0
  1  2  1  0
  2  3  1  0
  3  4  1  0
  4  5  2  0
  5  6  1  0
  6  7  2  0
  7  8  1  0
  8  9  2  0
  9 10  1  0
 10 11  2  0
  2 12  1  0
 12 13  1  0
 13 14  2  0
 14 15  1  0
 15 16  2  0
 16 17  1  0
 17 18  2  0
 18 19  1  0
 19 20  2  0
 20 21  1  0
 21 22  2  0
 11  6  1  0
 22 13  1  0
 22 17  1  0
M  END
>  <zinc_id>  (1) 
ZINC000001530977

>  <smiles>  (1) 
CN(C/C=C/c1ccccc1)Cc1cccc2ccccc12

$$$$
