
     RDKit          3D

 14 13  0  0  0  0  0  0  0  0999 V2000
   -1.7077    0.8162    1.4619 C   0  0  0  0  0  0  0  0  0  0  0  0
   -1.9613   -0.4116    0.7520 C   0  0  0  0  0  0  0  0  0  0  0  0
   -1.2553   -1.6376    1.2655 C   0  0  0  0  0  0  0  0  0  0  0  0
   -3.4390   -0.6167    0.6657 C   0  0  0  0  0  0  0  0  0  0  0  0
   -3.8548   -1.7344    0.0236 O   0  0  0  0  0  0  0  0  0  0  0  0
   -1.4166   -0.3220   -0.7912 C   0  0  1  0  0  0  0  0  0  0  0  0
   -2.2853    0.8454   -1.1843 O   0  0  0  0  0  0  0  0  0  0  0  0
   -0.1276    0.5689   -0.4791 C   0  0  0  0  0  0  0  0  0  0  0  0
   -0.0366    1.7476   -0.5725 O   0  0  0  0  0  0  0  0  0  0  0  0
    0.9783   -0.2453   -0.0478 N   0  0  0  0  0  0  0  0  0  0  0  0
    2.2034    0.4459    0.2649 C   0  0  0  0  0  0  0  0  0  0  0  0
    3.2708   -0.5274    0.7005 C   0  0  0  0  0  0  0  0  0  0  0  0
    4.5470    0.1817    1.0274 C   0  0  0  0  0  0  0  0  0  0  0  0
    5.0849    0.8893   -0.0132 O   0  0  0  0  0  0  0  0  0  0  0  0
  1  2  1  0
  2  3  1  0
  2  4  1  0
  4  5  1  0
  2  6  1  0
  6  7  1  6
  6  8  1  0
  8  9  2  0
  8 10  1  0
 10 11  1  0
 11 12  1  0
 12 13  1  0
 13 14  1  0
M  END
>  <zinc_id>  (1) 
ZINC000001530303

>  <smiles>  (1) 
CC(C)(CO)[C@@H](O)C(=O)NCCCO

$$$$
