
     RDKit          3D

 24 26  0  0  0  0  0  0  0  0999 V2000
    1.9047    0.2322   -1.8532 N   0  0  0  0  0  0  0  0  0  0  0  0
    2.4589    1.1627   -0.7405 C   0  0  1  0  0  0  0  0  0  0  0  0
    1.5568    0.6672    0.4598 C   0  0  0  0  0  0  0  0  0  0  0  0
    1.7275    1.1365    1.5919 O   0  0  0  0  0  0  0  0  0  0  0  0
    0.6184   -0.2903    0.1075 N   0  0  0  0  0  0  0  0  0  0  0  0
   -0.2582   -0.7596    1.3279 C   0  0  2  0  0  0  0  0  0  0  0  0
   -1.3606   -1.5223    0.4450 C   0  0  0  0  0  0  0  0  0  0  0  0
   -1.2709   -2.6544   -0.0525 O   0  0  0  0  0  0  0  0  0  0  0  0
   -2.2496   -0.4251    0.5491 N   0  0  0  0  0  0  0  0  0  0  0  0
   -3.4915    0.0922    0.1769 C   0  0  0  0  0  0  0  0  0  0  0  0
   -4.6463   -0.7960    0.1275 C   0  0  0  0  0  0  0  0  0  0  0  0
   -5.7888   -0.4100   -0.2032 O   0  0  0  0  0  0  0  0  0  0  0  0
   -4.4793   -2.1208    0.4582 O   0  0  0  0  0  0  0  0  0  0  0  0
   -3.7031    1.3782   -0.1588 C   0  0  0  0  0  0  0  0  0  0  0  0
   -5.3233    1.8704   -0.6007 Cl  0  0  0  0  0  0  0  0  0  0  0  0
   -2.6521    2.4128   -0.1921 C   0  0  0  0  0  0  0  0  0  0  0  0
   -1.0103    1.7468    0.1329 S   0  0  0  0  0  0  0  0  0  0  0  0
   -1.3846    0.4408    1.4283 C   0  0  2  0  0  0  0  0  0  0  0  0
    3.7779    0.3322   -0.4509 C   0  0  0  0  0  0  0  0  0  0  0  0
    4.1102    0.0844    0.8334 C   0  0  0  0  0  0  0  0  0  0  0  0
    5.2510   -0.6257    1.1431 C   0  0  0  0  0  0  0  0  0  0  0  0
    6.0340   -1.0695    0.0805 C   0  0  0  0  0  0  0  0  0  0  0  0
    5.6727   -0.8036   -1.2275 C   0  0  0  0  0  0  0  0  0  0  0  0
    4.5068   -0.0792   -1.5045 C   0  0  0  0  0  0  0  0  0  0  0  0
  2  1  1  6
  2  3  1  0
  3  4  2  0
  3  5  1  0
  6  5  1  6
  6  7  1  0
  7  8  2  0
  7  9  1  0
  9 10  1  0
 10 11  1  0
 11 12  2  0
 11 13  1  0
 10 14  2  0
 14 15  1  0
 14 16  1  0
 16 17  1  0
 18 17  1  6
  2 19  1  0
 19 20  2  0
 20 21  1  0
 21 22  2  0
 22 23  1  0
 23 24  2  0
 18  6  1  0
 24 19  1  0
 18  9  1  0
M  END
>  <zinc_id>  (1) 
ZINC000003812869

>  <smiles>  (1) 
N[C@@H](C(=O)N[C@@H]1C(=O)N2C(C(=O)O)=C(Cl)CS[C@H]12)c1ccccc1

$$$$
