
     RDKit          3D

 19 20  0  0  0  0  0  0  0  0999 V2000
   -2.2837    2.5996   -0.9394 C   0  0  0  0  0  0  0  0  0  0  0  0
   -2.5501    2.3489    0.5132 C   0  0  0  0  0  0  0  0  0  0  0  0
   -3.0063    0.9521    0.7540 C   0  0  0  0  0  0  0  0  0  0  0  0
   -2.0642   -0.0309    0.3770 N   0  0  0  0  0  0  0  0  0  0  0  0
   -2.5202   -1.3827    0.6564 C   0  0  0  0  0  0  0  0  0  0  0  0
   -3.6713   -1.8128   -0.1956 C   0  0  0  0  0  0  0  0  0  0  0  0
   -4.8801   -0.9151   -0.0081 C   0  0  0  0  0  0  0  0  0  0  0  0
   -1.4734    0.0916   -0.9147 C   0  0  0  0  0  0  0  0  0  0  0  0
   -0.4874   -0.9790   -1.2218 C   0  0  0  0  0  0  0  0  0  0  0  0
    0.6627   -1.0443   -0.3010 C   0  0  0  0  0  0  0  0  0  0  0  0
    0.7229   -2.0328    0.6552 C   0  0  0  0  0  0  0  0  0  0  0  0
    1.7637   -2.1637    1.5535 C   0  0  0  0  0  0  0  0  0  0  0  0
    2.7945   -1.2628    1.4932 C   0  0  0  0  0  0  0  0  0  0  0  0
    2.7730   -0.2449    0.5386 C   0  0  0  0  0  0  0  0  0  0  0  0
    1.7135   -0.1403   -0.3494 C   0  0  0  0  0  0  0  0  0  0  0  0
    1.9126    1.0095   -1.2600 C   0  0  0  0  0  0  0  0  0  0  0  0
    3.2010    1.5930   -0.8366 C   0  0  0  0  0  0  0  0  0  0  0  0
    3.7135    2.6057   -1.3883 O   0  0  0  0  0  0  0  0  0  0  0  0
    3.6791    0.8090    0.2436 N   0  0  0  0  0  0  0  0  0  0  0  0
  1  2  1  0
  2  3  1  0
  3  4  1  0
  4  5  1  0
  5  6  1  0
  6  7  1  0
  4  8  1  0
  8  9  1  0
  9 10  1  0
 10 11  2  0
 11 12  1  0
 12 13  2  0
 13 14  1  0
 14 15  2  0
 15 16  1  0
 16 17  1  0
 17 18  2  0
 17 19  1  0
 15 10  1  0
 19 14  1  0
M  END
>  <zinc_id>  (1) 
ZINC000000002041

>  <smiles>  (1) 
CCCN(CCC)CCc1cccc2c1CC(=O)N2

$$$$
