
     RDKit          3D

 34 35  0  0  0  0  0  0  0  0999 V2000
   -3.6147   -5.7671    0.6926 C   0  0  0  0  0  0  0  0  0  0  0  0
   -2.1882   -5.2529    0.5829 C   0  0  0  0  0  0  0  0  0  0  0  0
   -1.4100   -6.0071   -0.4760 C   0  0  0  0  0  0  0  0  0  0  0  0
   -1.5102   -5.5506    1.9194 C   0  0  0  0  0  0  0  0  0  0  0  0
   -2.1928   -3.7948    0.3060 C   0  0  0  0  0  0  0  0  0  0  0  0
   -1.6841   -3.2725   -0.7118 O   0  0  0  0  0  0  0  0  0  0  0  0
   -2.8028   -2.9717    1.2426 O   0  0  0  0  0  0  0  0  0  0  0  0
   -2.8977   -1.5819    1.1412 C   0  0  0  0  0  0  0  0  0  0  0  0
   -1.6459   -0.9747    1.0808 O   0  0  0  0  0  0  0  0  0  0  0  0
   -1.7282    0.6826    0.9597 P   0  0  0  0  0  0  0  0  0  0  0  0
   -2.3608    1.0228   -0.3821 O   0  0  0  0  0  0  0  0  0  0  0  0
   -0.0505    1.3601    1.0900 C   0  0  0  0  0  0  0  0  0  0  0  0
    0.6074    1.0727   -0.1097 O   0  0  0  0  0  0  0  0  0  0  0  0
    0.6333   -0.3161   -0.2674 C   0  0  0  0  0  0  0  0  0  0  0  0
    1.3436   -0.6367   -1.5635 C   0  0  0  0  0  0  0  0  0  0  0  0
    2.7099   -0.1326   -1.5575 N   0  0  0  0  0  0  0  0  0  0  0  0
    3.1052    1.0824   -1.9765 C   0  0  0  0  0  0  0  0  0  0  0  0
    4.4432    1.2076   -1.8256 N   0  0  0  0  0  0  0  0  0  0  0  0
    4.9205    0.0633   -1.3037 C   0  0  0  0  0  0  0  0  0  0  0  0
    3.8278   -0.7616   -1.1426 C   0  0  0  0  0  0  0  0  0  0  0  0
    4.0445   -1.9797   -0.6308 N   0  0  0  0  0  0  0  0  0  0  0  0
    5.2774   -2.3761   -0.2903 C   0  0  0  0  0  0  0  0  0  0  0  0
    6.3636   -1.6001   -0.4331 N   0  0  0  0  0  0  0  0  0  0  0  0
    6.1990   -0.3665   -0.9432 C   0  0  0  0  0  0  0  0  0  0  0  0
    7.3224    0.4926   -1.1132 N   0  0  0  0  0  0  0  0  0  0  0  0
   -2.6789    1.3913    2.1522 O   0  0  0  0  0  0  0  0  0  0  0  0
   -3.8222    1.9597    1.6517 C   0  0  0  0  0  0  0  0  0  0  0  0
   -3.6222    2.9712    0.7156 O   0  0  0  0  0  0  0  0  0  0  0  0
   -2.9376    4.1448    0.9421 C   0  0  0  0  0  0  0  0  0  0  0  0
   -2.4501    4.3245    2.0871 O   0  0  0  0  0  0  0  0  0  0  0  0
   -2.8142    5.1198   -0.1614 C   0  0  0  0  0  0  0  0  0  0  0  0
   -2.0341    6.3470    0.2615 C   0  0  0  0  0  0  0  0  0  0  0  0
   -2.1281    4.5264   -1.3786 C   0  0  0  0  0  0  0  0  0  0  0  0
   -4.2244    5.5738   -0.5583 C   0  0  0  0  0  0  0  0  0  0  0  0
  1  2  1  0
  2  3  1  0
  2  4  1  0
  2  5  1  0
  5  6  2  0
  5  7  1  0
  7  8  1  0
  8  9  1  0
  9 10  1  0
 10 11  2  0
 10 12  1  0
 12 13  1  0
 13 14  1  0
 14 15  1  0
 15 16  1  0
 16 17  1  0
 17 18  2  0
 18 19  1  0
 19 20  2  0
 20 21  1  0
 21 22  2  0
 22 23  1  0
 23 24  2  0
 24 25  1  0
 10 26  1  0
 26 27  1  0
 27 28  1  0
 28 29  1  0
 29 30  2  0
 29 31  1  0
 31 32  1  0
 31 33  1  0
 31 34  1  0
 20 16  1  0
 24 19  1  0
M  END
>  <zinc_id>  (1) 
ZINC000003930376

>  <smiles>  (1) 
CC(C)(C)C(=O)OCOP(=O)(COCCn1cnc2c(N)ncnc21)OCOC(=O)C(C)(C)C

$$$$
