
     RDKit          3D

 15 16  0  0  0  0  0  0  0  0999 V2000
   -2.8402    0.5382    1.6342 C   0  0  0  0  0  0  0  0  0  0  0  0
   -2.0476    0.2477    0.5410 N   0  0  0  0  0  0  0  0  0  0  0  0
   -1.8496    1.0931   -0.6046 C   0  0  0  0  0  0  0  0  0  0  0  0
   -2.3468    2.2350   -0.7384 O   0  0  0  0  0  0  0  0  0  0  0  0
   -0.9769    0.4033   -1.5817 C   0  0  0  0  0  0  0  0  0  0  0  0
   -0.3100   -0.7038   -0.7647 C   0  0  1  0  0  0  0  0  0  0  0  0
   -0.1663   -1.9674   -1.5498 C   0  0  0  0  0  0  0  0  0  0  0  0
    1.0053   -0.2590   -0.2360 C   0  0  0  0  0  0  0  0  0  0  0  0
    2.1931   -0.7887   -0.6971 C   0  0  0  0  0  0  0  0  0  0  0  0
    3.3737   -0.3501   -0.1828 C   0  0  0  0  0  0  0  0  0  0  0  0
    3.4163    0.6271    0.8047 C   0  0  0  0  0  0  0  0  0  0  0  0
    2.2348    1.1371    1.2463 C   0  0  0  0  0  0  0  0  0  0  0  0
    1.0376    0.7099    0.7426 C   0  0  0  0  0  0  0  0  0  0  0  0
   -1.2896   -0.9353    0.3560 C   0  0  0  0  0  0  0  0  0  0  0  0
   -1.4338   -1.9869    1.0304 O   0  0  0  0  0  0  0  0  0  0  0  0
  1  2  1  0
  2  3  1  0
  3  4  2  0
  3  5  1  0
  5  6  1  0
  6  7  1  6
  6  8  1  0
  8  9  2  0
  9 10  1  0
 10 11  2  0
 11 12  1  0
 12 13  2  0
  6 14  1  0
 14 15  2  0
 14  2  1  0
 13  8  1  0
M  END
>  <zinc_id>  (1) 
ZINC000000896703

>  <smiles>  (1) 
CN1C(=O)C[C@@](C)(c2ccccc2)C1=O

$$$$
