
     RDKit          3D

 49 55  0  0  0  0  0  0  0  0999 V2000
   12.0312   -2.4033    1.7005 C   0  0  0  0  0  0  0  0  0  0  0  0
   12.5165   -1.8588    1.5715 C   0  0  0  0  0  0  0  0  0  0  0  0
   12.2373   -0.6053    0.5781 C   0  0  1  0  0  0  0  0  0  0  0  0
   12.0145   -1.5466   -0.7294 C   0  0  0  0  0  0  0  0  0  0  0  0
   10.7808   -0.4208    0.9246 N   0  0  0  0  0  0  0  0  0  0  0  0
   10.3473   -0.3178    2.1410 N   0  0  0  0  0  0  0  0  0  0  0  0
    8.9998   -0.1432    2.1294 C   0  0  0  0  0  0  0  0  0  0  0  0
    8.6385   -0.1460    0.8430 N   0  0  0  0  0  0  0  0  0  0  0  0
    7.3368    0.0018    0.3062 C   0  0  0  0  0  0  0  0  0  0  0  0
    6.5565    1.0967    0.6077 C   0  0  0  0  0  0  0  0  0  0  0  0
    5.2851    1.2549    0.0922 C   0  0  0  0  0  0  0  0  0  0  0  0
    4.7783    0.3056   -0.7403 C   0  0  0  0  0  0  0  0  0  0  0  0
    3.4715    0.4636   -1.2738 N   0  0  0  0  0  0  0  0  0  0  0  0
    2.9271   -0.5451   -2.1610 C   0  0  0  0  0  0  0  0  0  0  0  0
    1.4835   -0.8594   -1.9120 C   0  0  0  0  0  0  0  0  0  0  0  0
    0.8612    0.2895   -1.3167 N   0  0  0  0  0  0  0  0  0  0  0  0
   -0.2419    0.0646   -0.4584 C   0  0  0  0  0  0  0  0  0  0  0  0
   -0.9323    1.1023    0.1545 C   0  0  0  0  0  0  0  0  0  0  0  0
   -1.9992    0.8895    0.9858 C   0  0  0  0  0  0  0  0  0  0  0  0
   -2.4669   -0.3655    1.2762 C   0  0  0  0  0  0  0  0  0  0  0  0
   -3.5280   -0.4911    2.1100 O   0  0  0  0  0  0  0  0  0  0  0  0
   -4.4347   -0.1179    2.8532 C   0  0  0  0  0  0  0  0  0  0  0  0
   -5.6869    0.7942    2.5722 C   0  0  1  0  0  0  0  0  0  0  0  0
   -5.0538    1.8691    1.5215 C   0  0  0  0  0  0  0  0  0  0  0  0
   -6.0805    1.9053    0.6777 O   0  0  0  0  0  0  0  0  0  0  0  0
   -6.5427    0.6207    0.4327 C   0  0  2  0  0  0  0  0  0  0  0  0
   -5.7443    0.1026   -0.7354 C   0  0  0  0  0  0  0  0  0  0  0  0
   -5.9564   -1.2123   -1.1870 N   0  0  0  0  0  0  0  0  0  0  0  0
   -6.7010   -1.8398   -2.0787 C   0  0  0  0  0  0  0  0  0  0  0  0
   -6.4915   -3.1633   -2.0738 N   0  0  0  0  0  0  0  0  0  0  0  0
   -5.5580   -3.3452   -1.1148 C   0  0  0  0  0  0  0  0  0  0  0  0
   -5.2297   -2.1902   -0.5776 N   0  0  0  0  0  0  0  0  0  0  0  0
   -7.8615    1.0360   -0.0893 C   0  0  0  0  0  0  0  0  0  0  0  0
   -8.1904    0.7359   -1.3840 C   0  0  0  0  0  0  0  0  0  0  0  0
   -9.3522    1.0672   -2.0373 C   0  0  0  0  0  0  0  0  0  0  0  0
  -10.2719    1.7755   -1.2980 C   0  0  0  0  0  0  0  0  0  0  0  0
  -11.7704    2.2249   -2.0783 Cl  0  0  0  0  0  0  0  0  0  0  0  0
   -9.9747    2.0923   -0.0003 C   0  0  0  0  0  0  0  0  0  0  0  0
   -8.7995    1.7464    0.6304 C   0  0  0  0  0  0  0  0  0  0  0  0
   -8.5150    2.2026    2.2906 Cl  0  0  0  0  0  0  0  0  0  0  0  0
   -6.4067   -0.0350    1.5613 O   0  0  0  0  0  0  0  0  0  0  0  0
   -1.7764   -1.3904    0.6640 C   0  0  0  0  0  0  0  0  0  0  0  0
   -0.7087   -1.2008   -0.1695 C   0  0  0  0  0  0  0  0  0  0  0  0
    1.3953    1.5873   -1.6286 C   0  0  0  0  0  0  0  0  0  0  0  0
    2.7423    1.6523   -0.8911 C   0  0  0  0  0  0  0  0  0  0  0  0
    5.5219   -0.8207   -1.0790 C   0  0  0  0  0  0  0  0  0  0  0  0
    6.7755   -0.9269   -0.5398 C   0  0  0  0  0  0  0  0  0  0  0  0
    9.7646   -0.3210    0.0973 C   0  0  0  0  0  0  0  0  0  0  0  0
    9.8096   -0.3759   -1.1675 O   0  0  0  0  0  0  0  0  0  0  0  0
  1  2  1  0
  2  3  1  0
  3  4  1  6
  3  5  1  0
  5  6  1  0
  6  7  2  0
  7  8  1  0
  8  9  1  0
  9 10  2  0
 10 11  1  0
 11 12  2  0
 12 13  1  0
 13 14  1  0
 14 15  1  0
 15 16  1  0
 16 17  1  0
 17 18  2  0
 18 19  1  0
 19 20  2  0
 20 21  1  0
 21 22  1  0
 23 22  1  6
 23 24  1  0
 24 25  1  0
 25 26  1  0
 26 27  1  6
 27 28  1  0
 28 29  1  0
 29 30  2  0
 30 31  1  0
 31 32  2  0
 26 33  1  0
 33 34  2  0
 34 35  1  0
 35 36  2  0
 36 37  1  0
 36 38  1  0
 38 39  2  0
 39 40  1  0
 26 41  1  0
 20 42  1  0
 42 43  2  0
 16 44  1  0
 44 45  1  0
 12 46  1  0
 46 47  2  0
  8 48  1  0
 48 49  2  0
 48  5  1  0
 47  9  1  0
 45 13  1  0
 43 17  1  0
 41 23  1  0
 32 28  1  0
 39 33  1  0
M  END
>  <zinc_id>  (1) 
ZINC000004097343

>  <smiles>  (1) 
CC[C@@H](C)n1ncn(-c2ccc(N3CCN(c4ccc(OC[C@H]5CO[C@](Cn6cncn6)(c6ccc(Cl)cc6Cl)O5)cc4)CC3)cc2)c1=O

$$$$
