
     RDKit          3D

 39 41  0  0  0  0  0  0  0  0999 V2000
    1.9785   -0.9497   -1.8685 C   0  0  0  0  0  0  0  0  0  0  0  0
    1.7757   -1.1153   -1.8153 C   0  0  0  0  0  0  0  0  0  0  0  0
    2.0289   -1.8872   -3.2438 C   0  0  0  0  0  0  0  0  0  0  0  0
    1.2751   -2.1227   -0.8918 C   0  0  0  0  0  0  0  0  0  0  0  0
    1.0774   -1.7718    0.4635 N   0  0  0  0  0  0  0  0  0  0  0  0
    1.2430   -0.3910    0.7036 C   0  0  0  0  0  0  0  0  0  0  0  0
    0.2171    0.3648    1.6135 C   0  0  1  0  0  0  0  0  0  0  0  0
    1.1036    1.6273    1.5229 O   0  0  0  0  0  0  0  0  0  0  0  0
    1.0106    2.6415    0.3877 P   0  0  0  0  0  0  0  0  0  0  0  0
    0.4826    3.9883    0.7241 O   0  0  0  0  0  0  0  0  0  0  0  0
    2.7054    3.1242   -0.0343 O   0  0  0  0  0  0  0  0  0  0  0  0
    0.4845    2.2426   -1.1757 O   0  0  0  0  0  0  0  0  0  0  0  0
   -0.8918    0.8968    0.4501 C   0  0  2  0  0  0  0  0  0  0  0  0
   -1.6802    1.8551    1.4314 C   0  0  0  0  0  0  0  0  0  0  0  0
   -2.5908    2.7383    0.6068 C   0  0  0  0  0  0  0  0  0  0  0  0
   -3.1601    3.7758    1.3672 C   0  0  0  0  0  0  0  0  0  0  0  0
   -3.8515    4.7748    0.7512 C   0  0  0  0  0  0  0  0  0  0  0  0
   -4.0145    4.7745   -0.6479 C   0  0  0  0  0  0  0  0  0  0  0  0
   -3.4893    3.7819   -1.4338 C   0  0  0  0  0  0  0  0  0  0  0  0
   -2.7687    2.7970   -0.6945 C   0  0  0  0  0  0  0  0  0  0  0  0
   -1.7054   -0.3861    0.7008 N   0  0  0  0  0  0  0  0  0  0  0  0
   -2.8366   -0.7842    0.1509 C   0  0  0  0  0  0  0  0  0  0  0  0
   -3.4366   -0.0404   -0.6989 O   0  0  0  0  0  0  0  0  0  0  0  0
   -3.5155   -2.0057    0.3447 O   0  0  0  0  0  0  0  0  0  0  0  0
   -4.8170   -1.9746   -0.5508 C   0  0  1  0  0  0  0  0  0  0  0  0
   -4.2391   -3.3442   -1.3410 C   0  0  0  0  0  0  0  0  0  0  0  0
   -5.3773   -4.2200   -1.2810 C   0  0  0  0  0  0  0  0  0  0  0  0
   -6.3588   -3.6451   -0.5290 O   0  0  0  0  0  0  0  0  0  0  0  0
   -5.5992   -3.0493    0.5181 C   0  0  0  0  0  0  0  0  0  0  0  0
    2.5735   -2.4510    1.2555 S   0  0  0  0  0  0  0  0  0  0  0  0
    2.7237   -3.8232    0.5983 O   0  0  0  0  0  0  0  0  0  0  0  0
    2.4000   -2.5848    2.6878 O   0  0  0  0  0  0  0  0  0  0  0  0
    3.9626   -1.5515    0.7849 C   0  0  0  0  0  0  0  0  0  0  0  0
    4.9772   -1.8782   -0.0609 C   0  0  0  0  0  0  0  0  0  0  0  0
    6.0562   -1.0013   -0.3041 C   0  0  0  0  0  0  0  0  0  0  0  0
    6.0702    0.1752    0.3041 C   0  0  0  0  0  0  0  0  0  0  0  0
    7.1055    1.1545    0.1122 N   0  0  0  0  0  0  0  0  0  0  0  0
    5.0585    0.5316    1.1624 C   0  0  0  0  0  0  0  0  0  0  0  0
    4.0226   -0.2671    1.4354 C   0  0  0  0  0  0  0  0  0  0  0  0
  1  2  1  0
  2  3  1  0
  2  4  1  0
  4  5  1  0
  5  6  1  0
  7  6  1  6
  7  8  1  0
  8  9  1  0
  9 10  2  0
  9 11  1  0
  9 12  1  0
  7 13  1  0
 13 14  1  1
 14 15  1  0
 15 16  2  0
 16 17  1  0
 17 18  2  0
 18 19  1  0
 19 20  2  0
 13 21  1  0
 21 22  1  0
 22 23  2  0
 22 24  1  0
 25 24  1  1
 25 26  1  0
 26 27  1  0
 27 28  1  0
 28 29  1  0
  5 30  1  0
 30 31  2  0
 30 32  2  0
 30 33  1  0
 33 34  2  0
 34 35  1  0
 35 36  2  0
 36 37  1  0
 36 38  1  0
 38 39  2  0
 20 15  1  0
 29 25  1  0
 39 33  1  0
M  END
>  <zinc_id>  (1) 
ZINC000003941829

>  <smiles>  (1) 
CC(C)CN(C[C@@H](OP(=O)(O)O)[C@H](Cc1ccccc1)NC(=O)O[C@H]1CCOC1)S(=O)(=O)c1ccc(N)cc1

$$$$
