
     RDKit          3D

 25 27  0  0  0  0  0  0  0  0999 V2000
    6.5507   -0.0415    1.0257 Cl  0  0  0  0  0  0  0  0  0  0  0  0
    5.0979    0.3680    0.6496 C   0  0  0  0  0  0  0  0  0  0  0  0
    4.5630    0.1233   -0.5948 C   0  0  0  0  0  0  0  0  0  0  0  0
    3.2117    0.4457   -0.8888 C   0  0  0  0  0  0  0  0  0  0  0  0
    2.4284    1.0067    0.0194 C   0  0  0  0  0  0  0  0  0  0  0  0
    1.0265    1.4640   -0.1454 C   0  0  0  0  0  0  0  0  0  0  0  0
    0.1872    0.4328   -0.0609 O   0  0  0  0  0  0  0  0  0  0  0  0
   -0.4767    0.0023   -1.1910 C   0  0  2  0  0  0  0  0  0  0  0  0
   -1.3547    1.2304   -1.6194 C   0  0  0  0  0  0  0  0  0  0  0  0
   -2.2121    1.7716   -0.6925 N   0  0  0  0  0  0  0  0  0  0  0  0
   -3.4757    1.5510   -0.3826 C   0  0  0  0  0  0  0  0  0  0  0  0
   -3.9038    2.2999    0.6372 C   0  0  0  0  0  0  0  0  0  0  0  0
   -2.9157    3.0520    1.0324 N   0  0  0  0  0  0  0  0  0  0  0  0
   -1.8614    2.7647    0.2324 C   0  0  0  0  0  0  0  0  0  0  0  0
   -1.3928   -1.1632   -0.7809 C   0  0  0  0  0  0  0  0  0  0  0  0
   -2.5979   -1.2723   -1.2298 C   0  0  0  0  0  0  0  0  0  0  0  0
   -3.4261   -2.3834   -0.9256 C   0  0  0  0  0  0  0  0  0  0  0  0
   -2.9363   -3.3738   -0.1540 C   0  0  0  0  0  0  0  0  0  0  0  0
   -3.8858   -4.8061    0.1697 Cl  0  0  0  0  0  0  0  0  0  0  0  0
   -1.6208   -3.2693    0.3273 C   0  0  0  0  0  0  0  0  0  0  0  0
   -0.8555   -2.1750    0.0174 C   0  0  0  0  0  0  0  0  0  0  0  0
    0.7720   -2.1447    0.7078 Cl  0  0  0  0  0  0  0  0  0  0  0  0
    2.9692    1.2717    1.3163 C   0  0  0  0  0  0  0  0  0  0  0  0
    1.8506    1.9070    2.5141 Cl  0  0  0  0  0  0  0  0  0  0  0  0
    4.2581    0.9383    1.5703 C   0  0  0  0  0  0  0  0  0  0  0  0
  1  2  1  0
  2  3  2  0
  3  4  1  0
  4  5  2  0
  5  6  1  0
  6  7  1  0
  7  8  1  0
  8  9  1  1
  9 10  1  0
 10 11  1  0
 11 12  2  0
 12 13  1  0
 13 14  2  0
  8 15  1  0
 15 16  2  0
 16 17  1  0
 17 18  2  0
 18 19  1  0
 18 20  1  0
 20 21  2  0
 21 22  1  0
  5 23  1  0
 23 24  1  0
 23 25  2  0
 25  2  1  0
 14 10  1  0
 21 15  1  0
M  END
>  <zinc_id>  (1) 
ZINC000000607971

>  <smiles>  (1) 
Clc1ccc(CO[C@H](Cn2ccnc2)c2ccc(Cl)cc2Cl)c(Cl)c1

$$$$
