
     RDKit          3D

 17 18  0  0  0  0  0  0  0  0999 V2000
    5.0315    0.7923   -1.2989 C   0  0  0  0  0  0  0  0  0  0  0  0
    4.6391    0.0681   -0.3764 O   0  0  0  0  0  0  0  0  0  0  0  0
    3.3300   -0.0968    0.0747 C   0  0  0  0  0  0  0  0  0  0  0  0
    3.0263   -0.9342    1.1116 C   0  0  0  0  0  0  0  0  0  0  0  0
    1.7245   -1.0826    1.5420 C   0  0  0  0  0  0  0  0  0  0  0  0
    0.7097   -0.3923    0.9370 C   0  0  0  0  0  0  0  0  0  0  0  0
   -0.6235   -0.5194    1.3487 C   0  0  0  0  0  0  0  0  0  0  0  0
   -1.6267    0.1681    0.7447 C   0  0  0  0  0  0  0  0  0  0  0  0
   -3.0647   -0.0158    1.2555 C   0  0  2  0  0  0  0  0  0  0  0  0
   -3.0391   -1.6364    1.3630 C   0  0  0  0  0  0  0  0  0  0  0  0
   -3.8340    0.0675   -0.1189 C   0  0  0  0  0  0  0  0  0  0  0  0
   -4.4884   -0.8928   -0.5561 O   0  0  0  0  0  0  0  0  0  0  0  0
   -3.7406    1.2821   -0.8166 O   0  0  0  0  0  0  0  0  0  0  0  0
   -1.3381    0.9997   -0.2826 C   0  0  0  0  0  0  0  0  0  0  0  0
   -0.0059    1.1505   -0.7217 C   0  0  0  0  0  0  0  0  0  0  0  0
    0.9928    0.4463   -0.0973 C   0  0  0  0  0  0  0  0  0  0  0  0
    2.3071    0.5955   -0.5310 C   0  0  0  0  0  0  0  0  0  0  0  0
  1  2  1  0
  2  3  1  0
  3  4  2  0
  4  5  1  0
  5  6  2  0
  6  7  1  0
  7  8  2  0
  8  9  1  0
  9 10  1  6
  9 11  1  0
 11 12  2  0
 11 13  1  0
  8 14  1  0
 14 15  2  0
 15 16  1  0
 16 17  2  0
 17  3  1  0
 16  6  1  0
M  END
>  <zinc_id>  (1) 
ZINC000000105216

>  <smiles>  (1) 
COc1ccc2cc([C@H](C)C(=O)O)ccc2c1

$$$$
