
     RDKit          3D

 23 25  0  0  0  0  0  0  0  0999 V2000
    1.4105   -1.6994    2.6861 Cl  0  0  0  0  0  0  0  0  0  0  0  0
    2.3795   -0.9768    1.4470 C   0  0  0  0  0  0  0  0  0  0  0  0
    4.1017   -0.9656    1.3205 S   0  0  0  0  0  0  0  0  0  0  0  0
    4.2502   -0.0818   -0.1313 C   0  0  0  0  0  0  0  0  0  0  0  0
    2.9763    0.1719   -0.4652 C   0  0  0  0  0  0  0  0  0  0  0  0
    1.9886   -0.2814    0.3364 C   0  0  0  0  0  0  0  0  0  0  0  0
    0.5539   -0.0373    0.0316 C   0  0  0  0  0  0  0  0  0  0  0  0
    0.3495    0.6741   -1.1271 O   0  0  0  0  0  0  0  0  0  0  0  0
   -1.1619    0.7232   -1.1792 C   0  0  2  0  0  0  0  0  0  0  0  0
   -1.4693    1.5741    0.1953 C   0  0  0  0  0  0  0  0  0  0  0  0
   -0.9075    2.8456    0.1551 N   0  0  0  0  0  0  0  0  0  0  0  0
    0.3138    3.1691    0.5895 C   0  0  0  0  0  0  0  0  0  0  0  0
    0.5439    4.4981    0.4009 C   0  0  0  0  0  0  0  0  0  0  0  0
   -0.5327    5.0092   -0.1521 N   0  0  0  0  0  0  0  0  0  0  0  0
   -1.4183    4.0253   -0.3073 C   0  0  0  0  0  0  0  0  0  0  0  0
   -1.4854   -0.7234   -0.6563 C   0  0  0  0  0  0  0  0  0  0  0  0
   -2.0891   -0.9545    0.5254 C   0  0  0  0  0  0  0  0  0  0  0  0
   -2.3844   -2.2583    0.9591 C   0  0  0  0  0  0  0  0  0  0  0  0
   -2.0514   -3.3224    0.1616 C   0  0  0  0  0  0  0  0  0  0  0  0
   -2.4110   -4.9880    0.6833 Cl  0  0  0  0  0  0  0  0  0  0  0  0
   -1.4361   -3.1013   -1.0437 C   0  0  0  0  0  0  0  0  0  0  0  0
   -1.1510   -1.7813   -1.4543 C   0  0  0  0  0  0  0  0  0  0  0  0
   -0.3699   -1.5191   -2.9753 Cl  0  0  0  0  0  0  0  0  0  0  0  0
  1  2  1  0
  2  3  1  0
  3  4  1  0
  4  5  2  0
  5  6  1  0
  6  7  1  0
  7  8  1  0
  8  9  1  0
  9 10  1  1
 10 11  1  0
 11 12  1  0
 12 13  2  0
 13 14  1  0
 14 15  2  0
  9 16  1  0
 16 17  2  0
 17 18  1  0
 18 19  2  0
 19 20  1  0
 19 21  1  0
 21 22  2  0
 22 23  1  0
  6  2  2  0
 15 11  1  0
 22 16  1  0
M  END
>  <zinc_id>  (1) 
ZINC000000897385

>  <smiles>  (1) 
Clc1ccc([C@H](Cn2ccnc2)OCc2ccsc2Cl)c(Cl)c1

$$$$
