
     RDKit          3D

 18 19  0  0  0  0  0  0  0  0999 V2000
   -4.6970   -0.0533    0.5176 O   0  0  0  0  0  0  0  0  0  0  0  0
   -3.5340   -0.3833    0.8547 C   0  0  0  0  0  0  0  0  0  0  0  0
   -3.3351   -1.1683    1.9927 O   0  0  0  0  0  0  0  0  0  0  0  0
   -2.4078    0.0630    0.0455 C   0  0  0  0  0  0  0  0  0  0  0  0
   -1.0943   -0.2821    0.3853 C   0  0  0  0  0  0  0  0  0  0  0  0
   -0.0190    0.1304   -0.3671 C   0  0  0  0  0  0  0  0  0  0  0  0
    1.3602   -0.2225   -0.0243 C   0  0  0  0  0  0  0  0  0  0  0  0
    1.7126   -1.5089    0.3450 C   0  0  0  0  0  0  0  0  0  0  0  0
    3.0217   -1.8100    0.6624 C   0  0  0  0  0  0  0  0  0  0  0  0
    4.0268   -0.8659    0.6293 C   0  0  0  0  0  0  0  0  0  0  0  0
    5.2962   -1.1935    0.9455 F   0  0  0  0  0  0  0  0  0  0  0  0
    3.6746    0.4164    0.2611 C   0  0  0  0  0  0  0  0  0  0  0  0
    2.3688    0.7183   -0.0558 C   0  0  0  0  0  0  0  0  0  0  0  0
    2.0726    1.9912   -0.4113 F   0  0  0  0  0  0  0  0  0  0  0  0
   -0.2769    0.9062   -1.4837 C   0  0  0  0  0  0  0  0  0  0  0  0
   -1.5722    1.2494   -1.8231 C   0  0  0  0  0  0  0  0  0  0  0  0
   -2.6353    0.8368   -1.0721 C   0  0  0  0  0  0  0  0  0  0  0  0
   -3.9618    1.1761   -1.4016 O   0  0  0  0  0  0  0  0  0  0  0  0
  1  2  2  0
  2  3  1  0
  2  4  1  0
  4  5  2  0
  5  6  1  0
  6  7  1  0
  7  8  2  0
  8  9  1  0
  9 10  2  0
 10 11  1  0
 10 12  1  0
 12 13  2  0
 13 14  1  0
  6 15  2  0
 15 16  1  0
 16 17  2  0
 17 18  1  0
 17  4  1  0
 13  7  1  0
M  END
>  <zinc_id>  (1) 
ZINC000000020243

>  <smiles>  (1) 
O=C(O)c1cc(-c2ccc(F)cc2F)ccc1O

$$$$
