
     RDKit          3D

 35 37  0  0  0  0  0  0  0  0999 V2000
    1.0494   -5.3723   -0.9120 C   0  0  0  0  0  0  0  0  0  0  0  0
    1.7636   -4.6766   -0.4402 C   0  0  0  0  0  0  0  0  0  0  0  0
    2.7237   -3.7188    0.1755 C   0  0  0  0  0  0  0  0  0  0  0  0
    1.9835   -3.2107    1.5275 C   0  0  1  0  0  0  0  0  0  0  0  0
    3.0344   -2.2191    2.1049 C   0  0  0  0  0  0  0  0  0  0  0  0
    3.4849   -1.1193    1.3418 C   0  0  0  0  0  0  0  0  0  0  0  0
    4.6227   -1.4077    0.5325 C   0  0  0  0  0  0  0  0  0  0  0  0
    5.2008   -0.4911   -0.2186 N   0  0  0  0  0  0  0  0  0  0  0  0
    4.7660    0.7727   -0.2797 C   0  0  0  0  0  0  0  0  0  0  0  0
    5.3856    1.7000   -1.0646 N   0  0  0  0  0  0  0  0  0  0  0  0
    4.9081    2.9701   -1.0903 C   0  0  0  0  0  0  0  0  0  0  0  0
    5.5460    3.9383   -1.9070 N   0  0  0  0  0  0  0  0  0  0  0  0
    3.8384    3.3203   -0.3548 N   0  0  0  0  0  0  0  0  0  0  0  0
    3.2227    2.3977    0.4259 C   0  0  0  0  0  0  0  0  0  0  0  0
    2.0953    2.7335    1.2239 N   0  0  0  0  0  0  0  0  0  0  0  0
    3.6667    1.0894    0.4896 C   0  0  0  0  0  0  0  0  0  0  0  0
    3.0734    0.1486    1.2606 N   0  0  0  0  0  0  0  0  0  0  0  0
    0.9062   -2.3160    0.9163 C   0  0  0  0  0  0  0  0  0  0  0  0
   -0.2836   -2.1690    1.6047 C   0  0  0  0  0  0  0  0  0  0  0  0
   -1.3250   -1.4411    1.1020 C   0  0  0  0  0  0  0  0  0  0  0  0
   -1.2339   -0.8099   -0.1353 C   0  0  0  0  0  0  0  0  0  0  0  0
   -2.3720   -0.0488   -0.6541 C   0  0  0  0  0  0  0  0  0  0  0  0
   -2.3342    0.4208   -1.7990 O   0  0  0  0  0  0  0  0  0  0  0  0
   -3.4405    0.1222    0.1326 N   0  0  0  0  0  0  0  0  0  0  0  0
   -4.7499    0.8856   -0.2037 C   0  0  1  0  0  0  0  0  0  0  0  0
   -4.5961    0.9646   -1.8658 C   0  0  0  0  0  0  0  0  0  0  0  0
   -5.8406    1.6958   -2.3081 C   0  0  0  0  0  0  0  0  0  0  0  0
   -5.9009    3.0340   -1.7137 C   0  0  0  0  0  0  0  0  0  0  0  0
   -5.3672    4.0534   -2.2247 O   0  0  0  0  0  0  0  0  0  0  0  0
   -6.5773    3.2510   -0.5099 O   0  0  0  0  0  0  0  0  0  0  0  0
   -5.7949   -0.3197   -0.2552 C   0  0  0  0  0  0  0  0  0  0  0  0
   -5.3070   -1.4238   -0.1633 O   0  0  0  0  0  0  0  0  0  0  0  0
   -7.1091   -0.0982   -0.3877 O   0  0  0  0  0  0  0  0  0  0  0  0
   -0.0568   -0.9514   -0.8170 C   0  0  0  0  0  0  0  0  0  0  0  0
    1.0173   -1.7045   -0.2934 C   0  0  0  0  0  0  0  0  0  0  0  0
  1  2  3  0
  2  3  1  0
  4  3  1  6
  4  5  1  0
  5  6  1  0
  6  7  2  0
  7  8  1  0
  8  9  2  0
  9 10  1  0
 10 11  2  0
 11 12  1  0
 11 13  1  0
 13 14  2  0
 14 15  1  0
 14 16  1  0
 16 17  2  0
  4 18  1  0
 18 19  2  0
 19 20  1  0
 20 21  2  0
 21 22  1  0
 22 23  2  0
 22 24  1  0
 24 25  1  0
 25 26  1  6
 26 27  1  0
 27 28  1  0
 28 29  2  0
 28 30  1  0
 25 31  1  0
 31 32  2  0
 31 33  1  0
 21 34  1  0
 34 35  2  0
 17  6  1  0
 35 18  1  0
 16  9  1  0
M  END
>  <zinc_id>  (1) 
ZINC000001536109

>  <smiles>  (1) 
C#CC[C@@H](Cc1cnc2nc(N)nc(N)c2n1)c1ccc(C(=O)N[C@@H](CCC(=O)O)C(=O)O)cc1

$$$$
