
     RDKit          3D

 22 22  0  0  0  0  0  0  0  0999 V2000
   -0.4065    0.2412   -2.2464 C   0  0  0  0  0  0  0  0  0  0  0  0
   -0.2009    0.0657   -0.7898 C   0  0  0  0  0  0  0  0  0  0  0  0
    1.1361   -0.0739   -0.2381 C   0  0  0  0  0  0  0  0  0  0  0  0
    2.1619   -0.0435   -1.0405 C   0  0  0  0  0  0  0  0  0  0  0  0
    3.5523   -0.1752   -0.5879 C   0  0  0  0  0  0  0  0  0  0  0  0
    4.5535   -0.1401   -1.4185 C   0  0  0  0  0  0  0  0  0  0  0  0
    4.2158    0.0431   -2.8762 C   0  0  0  0  0  0  0  0  0  0  0  0
    5.9809   -0.2638   -1.0558 C   0  0  0  0  0  0  0  0  0  0  0  0
    6.1785    0.1452    0.3671 C   0  0  0  0  0  0  0  0  0  0  0  0
    5.1769   -0.4793    1.2975 C   0  0  0  0  0  0  0  0  0  0  0  0
    3.7665   -0.3495    0.8549 C   0  0  0  0  0  0  0  0  0  0  0  0
    3.0277   -1.6480    1.2247 C   0  0  0  0  0  0  0  0  0  0  0  0
    3.0608    0.7883    1.5851 C   0  0  0  0  0  0  0  0  0  0  0  0
   -1.2487    0.0365    0.0137 C   0  0  0  0  0  0  0  0  0  0  0  0
   -2.5651    0.1806   -0.5883 C   0  0  0  0  0  0  0  0  0  0  0  0
   -3.6925    0.1702    0.0884 C   0  0  0  0  0  0  0  0  0  0  0  0
   -4.9476    0.3275   -0.6619 C   0  0  0  0  0  0  0  0  0  0  0  0
   -4.9586    0.4941   -2.1410 C   0  0  0  0  0  0  0  0  0  0  0  0
   -6.0955    0.3235   -0.0318 C   0  0  0  0  0  0  0  0  0  0  0  0
   -6.2027    0.1680    1.4088 C   0  0  0  0  0  0  0  0  0  0  0  0
   -7.3591    0.1798    1.9033 O   0  0  0  0  0  0  0  0  0  0  0  0
   -5.1337    0.0097    2.2656 O   0  0  0  0  0  0  0  0  0  0  0  0
  1  2  1  0
  2  3  1  0
  3  4  2  0
  4  5  1  0
  5  6  2  0
  6  7  1  0
  6  8  1  0
  8  9  1  0
  9 10  1  0
 10 11  1  0
 11 12  1  0
 11 13  1  0
  2 14  2  0
 14 15  1  0
 15 16  2  0
 16 17  1  0
 17 18  1  0
 17 19  2  0
 19 20  1  0
 20 21  2  0
 20 22  1  0
 11  5  1  0
M  END
>  <zinc_id>  (1) 
ZINC000003792789

>  <smiles>  (1) 
CC1=C(/C=C/C(C)=C/C=C/C(C)=C\C(=O)O)C(C)(C)CCC1

$$$$
