
     RDKit          3D

 19 22  0  0  0  0  0  0  0  0999 V2000
   -2.0496    2.3499    1.2281 N   0  0  0  0  0  0  0  0  0  0  0  0
   -0.9394    2.1432    0.4085 C   0  0  0  0  0  0  0  0  0  0  0  0
   -0.0565    3.0166    0.2095 N   0  0  0  0  0  0  0  0  0  0  0  0
    0.9795    2.6261   -0.6414 C   0  0  0  0  0  0  0  0  0  0  0  0
    0.4625    1.2261   -1.2901 C   0  0  1  0  0  0  0  0  0  0  0  0
    1.5314    0.2908   -0.5570 C   0  0  0  0  0  0  0  0  0  0  0  0
    2.5796    0.9970   -0.0853 C   0  0  0  0  0  0  0  0  0  0  0  0
    3.5923    0.3166    0.5594 C   0  0  0  0  0  0  0  0  0  0  0  0
    3.5533   -1.0499    0.7278 C   0  0  0  0  0  0  0  0  0  0  0  0
    2.4569   -1.7152    0.2244 C   0  0  0  0  0  0  0  0  0  0  0  0
    1.4373   -1.0528   -0.4217 C   0  0  0  0  0  0  0  0  0  0  0  0
    0.3714   -2.0231   -0.8687 C   0  0  0  0  0  0  0  0  0  0  0  0
   -0.9587   -1.5723   -0.3484 C   0  0  0  0  0  0  0  0  0  0  0  0
   -1.7814   -2.6567   -0.1206 C   0  0  0  0  0  0  0  0  0  0  0  0
   -3.0581   -2.4178    0.3699 C   0  0  0  0  0  0  0  0  0  0  0  0
   -3.4526   -1.1203    0.6088 C   0  0  0  0  0  0  0  0  0  0  0  0
   -2.6321   -0.0510    0.3807 C   0  0  0  0  0  0  0  0  0  0  0  0
   -1.3509   -0.2746   -0.1105 C   0  0  0  0  0  0  0  0  0  0  0  0
   -0.6849    0.9675   -0.2735 N   0  0  0  0  0  0  0  0  0  0  0  0
  1  2  1  0
  2  3  2  0
  3  4  1  0
  5  4  1  1
  5  6  1  0
  6  7  2  0
  7  8  1  0
  8  9  2  0
  9 10  1  0
 10 11  2  0
 11 12  1  0
 12 13  1  0
 13 14  2  0
 14 15  1  0
 15 16  2  0
 16 17  1  0
 17 18  2  0
 18 19  1  0
 19  2  1  0
 19  5  1  0
 11  6  1  0
 18 13  1  0
M  END
>  <zinc_id>  (1) 
ZINC000001999487

>  <smiles>  (1) 
NC1=NC[C@H]2c3ccccc3Cc3ccccc3N12

$$$$
