
     RDKit          3D

 19 19  0  0  0  0  0  0  0  0999 V2000
    5.2193    0.0264   -0.9838 C   0  0  0  0  0  0  0  0  0  0  0  0
    4.5292    0.6089    0.2482 C   0  0  0  0  0  0  0  0  0  0  0  0
    4.8844    2.0969    0.3319 C   0  0  0  0  0  0  0  0  0  0  0  0
    3.0560    0.5129    0.1543 C   0  0  0  0  0  0  0  0  0  0  0  0
    2.2917    1.5350    0.1864 O   0  0  0  0  0  0  0  0  0  0  0  0
    2.3797   -0.7374    0.0195 N   0  0  0  0  0  0  0  0  0  0  0  0
    0.9483   -0.8255   -0.0715 C   0  0  0  0  0  0  0  0  0  0  0  0
    0.4330   -2.0930   -0.2014 C   0  0  0  0  0  0  0  0  0  0  0  0
   -0.8987   -2.2820   -0.2946 C   0  0  0  0  0  0  0  0  0  0  0  0
   -1.7696   -1.1661   -0.2583 C   0  0  0  0  0  0  0  0  0  0  0  0
   -3.1573   -1.4686   -0.3181 N   0  0  0  0  0  0  0  0  0  0  0  0
   -3.5347   -2.5861    0.1669 O   0  0  0  0  0  0  0  0  0  0  0  0
   -4.0762   -0.6536   -0.8439 O   0  0  0  0  0  0  0  0  0  0  0  0
   -1.2782    0.1011   -0.1303 C   0  0  0  0  0  0  0  0  0  0  0  0
   -2.1129    1.3187   -0.1012 C   0  0  0  0  0  0  0  0  0  0  0  0
   -1.2962    2.4429    0.1253 F   0  0  0  0  0  0  0  0  0  0  0  0
   -3.0232    1.3090    0.9079 F   0  0  0  0  0  0  0  0  0  0  0  0
   -2.7202    1.6170   -1.3096 F   0  0  0  0  0  0  0  0  0  0  0  0
    0.1254    0.2434   -0.0361 C   0  0  0  0  0  0  0  0  0  0  0  0
  1  2  1  0
  2  3  1  0
  2  4  1  0
  4  5  2  0
  4  6  1  0
  6  7  1  0
  7  8  2  0
  8  9  1  0
  9 10  2  0
 10 11  1  0
 11 12  2  0
 11 13  1  0
 10 14  1  0
 14 15  1  0
 15 16  1  0
 15 17  1  0
 15 18  1  0
 14 19  2  0
 19  7  1  0
M  CHG  2  11   1  13  -1
M  END
>  <zinc_id>  (1) 
ZINC000003812944

>  <smiles>  (1) 
CC(C)C(=O)Nc1ccc([N+](=O)[O-])c(C(F)(F)F)c1

$$$$
