
     RDKit          3D

 19 20  0  0  0  0  0  0  0  0999 V2000
    0.7256    3.1877   -1.7861 C   0  0  0  0  0  0  0  0  0  0  0  0
    0.8193    2.8220   -0.4393 N   0  0  0  0  0  0  0  0  0  0  0  0
    0.6956    4.0048    0.3477 C   0  0  0  0  0  0  0  0  0  0  0  0
   -0.2138    1.9170   -0.0751 C   0  0  0  0  0  0  0  0  0  0  0  0
    0.0896    0.5216   -0.8627 C   0  0  2  0  0  0  0  0  0  0  0  0
   -1.1913   -0.2816   -0.3218 C   0  0  0  0  0  0  0  0  0  0  0  0
   -1.8369    0.0518    0.7849 C   0  0  0  0  0  0  0  0  0  0  0  0
   -2.9310   -0.6990    1.1718 C   0  0  0  0  0  0  0  0  0  0  0  0
   -3.3303   -1.7758    0.4049 C   0  0  0  0  0  0  0  0  0  0  0  0
   -4.4199   -2.5754    0.7310 O   0  0  0  0  0  0  0  0  0  0  0  0
   -2.6488   -2.1132   -0.7469 C   0  0  0  0  0  0  0  0  0  0  0  0
   -1.5692   -1.3591   -1.1133 C   0  0  0  0  0  0  0  0  0  0  0  0
    1.1363   -0.1489    0.1989 C   0  0  0  0  0  0  0  0  0  0  0  0
    0.5910   -0.3060    1.3917 O   0  0  0  0  0  0  0  0  0  0  0  0
    2.2739    0.8341    0.1921 C   0  0  0  0  0  0  0  0  0  0  0  0
    3.5694    0.2420   -0.3212 C   0  0  0  0  0  0  0  0  0  0  0  0
    3.8541   -0.9775    0.5369 C   0  0  0  0  0  0  0  0  0  0  0  0
    2.7348   -1.9456    0.3779 C   0  0  0  0  0  0  0  0  0  0  0  0
    1.6516   -1.3986   -0.4713 C   0  0  0  0  0  0  0  0  0  0  0  0
  1  2  1  0
  2  3  1  0
  2  4  1  0
  5  4  1  1
  5  6  1  0
  6  7  2  0
  7  8  1  0
  8  9  2  0
  9 10  1  0
  9 11  1  0
 11 12  2  0
  5 13  1  0
 13 14  1  0
 13 15  1  0
 15 16  1  0
 16 17  1  0
 17 18  1  0
 18 19  1  0
 12  6  1  0
 19 13  1  0
M  END
>  <zinc_id>  (1) 
ZINC000000009342

>  <smiles>  (1) 
CN(C)C[C@H](c1ccc(O)cc1)C1(O)CCCCC1

$$$$
