
     RDKit          3D

 16 15  0  0  0  0  0  0  0  0999 V2000
    4.8860   -1.2702    0.8375 C   0  0  0  0  0  0  0  0  0  0  0  0
    4.3208    0.1378    0.8688 C   0  0  0  0  0  0  0  0  0  0  0  0
    3.4039    0.2774   -0.2303 N   0  0  0  0  0  0  0  0  0  0  0  0
    3.8281    0.2942   -1.6255 C   0  0  0  0  0  0  0  0  0  0  0  0
    4.5914    1.5664   -1.8878 C   0  0  0  0  0  0  0  0  0  0  0  0
    2.0129    0.4069    0.0463 C   0  0  0  0  0  0  0  0  0  0  0  0
    1.4755    0.3804    1.5920 S   0  0  0  0  0  0  0  0  0  0  0  0
    0.8190    0.5943   -1.2542 S   0  0  0  0  0  0  0  0  0  0  0  0
   -1.1119    1.0309   -0.5737 S   0  0  0  0  0  0  0  0  0  0  0  0
   -2.1300   -0.3898   -0.2852 C   0  0  0  0  0  0  0  0  0  0  0  0
   -1.4398   -1.8672   -0.5044 S   0  0  0  0  0  0  0  0  0  0  0  0
   -3.4719   -0.2031    0.1382 N   0  0  0  0  0  0  0  0  0  0  0  0
   -4.4402   -1.2286    0.3943 C   0  0  0  0  0  0  0  0  0  0  0  0
   -3.9403   -2.5777    0.0299 C   0  0  0  0  0  0  0  0  0  0  0  0
   -3.8832    1.2038    0.3751 C   0  0  0  0  0  0  0  0  0  0  0  0
   -4.9201    1.6445   -0.6575 C   0  0  0  0  0  0  0  0  0  0  0  0
  1  2  1  0
  2  3  1  0
  3  4  1  0
  4  5  1  0
  3  6  1  0
  6  7  2  0
  6  8  1  0
  8  9  1  0
  9 10  1  0
 10 11  2  0
 10 12  1  0
 12 13  1  0
 13 14  1  0
 12 15  1  0
 15 16  1  0
M  END
>  <zinc_id>  (1) 
ZINC000001529266

>  <smiles>  (1) 
CCN(CC)C(=S)SSC(=S)N(CC)CC

$$$$
