
     RDKit          3D

 28 30  0  0  0  0  0  0  0  0999 V2000
   -3.0533    0.1082    2.3147 C   0  0  0  0  0  0  0  0  0  0  0  0
   -3.7724    0.1358    2.0456 C   0  0  0  0  0  0  0  0  0  0  0  0
   -4.9499   -0.4079    2.8558 C   0  0  0  0  0  0  0  0  0  0  0  0
   -5.9165    0.6390    2.6284 C   0  0  0  0  0  0  0  0  0  0  0  0
   -6.6255    0.5135    1.1675 C   0  0  2  0  0  0  0  0  0  0  0  0
   -6.1545   -0.8672    0.8062 O   0  0  0  0  0  0  0  0  0  0  0  0
   -5.4574    1.2951    0.3501 C   0  0  0  0  0  0  0  0  0  0  0  0
   -4.1414    0.6831    0.7701 C   0  0  0  0  0  0  0  0  0  0  0  0
   -3.1607    0.6273   -0.1368 C   0  0  0  0  0  0  0  0  0  0  0  0
   -1.8651    0.0542    0.2011 C   0  0  0  0  0  0  0  0  0  0  0  0
   -0.9549    0.0304   -0.7283 C   0  0  0  0  0  0  0  0  0  0  0  0
   -1.1396    0.5434   -2.1024 C   0  0  0  0  0  0  0  0  0  0  0  0
   -0.1227   -0.0265   -3.0618 C   0  0  0  0  0  0  0  0  0  0  0  0
    1.2682   -0.1448   -2.5043 C   0  0  0  0  0  0  0  0  0  0  0  0
    1.3005    0.4593   -1.2053 C   0  0  1  0  0  0  0  0  0  0  0  0
    0.8771    1.8089   -0.9156 C   0  0  0  0  0  0  0  0  0  0  0  0
    0.4215   -0.6201   -0.3280 C   0  0  1  0  0  0  0  0  0  0  0  0
    0.6202    0.2317    1.0286 C   0  0  0  0  0  0  0  0  0  0  0  0
    1.9352    0.7804    0.9644 C   0  0  0  0  0  0  0  0  0  0  0  0
    2.6355    0.1972   -0.3862 C   0  0  2  0  0  0  0  0  0  0  0  0
    3.3550    1.6340   -0.7377 C   0  0  2  0  0  0  0  0  0  0  0  0
    3.3855    1.4213   -2.3217 C   0  0  0  0  0  0  0  0  0  0  0  0
    4.8508    1.2939   -0.4500 C   0  0  0  0  0  0  0  0  0  0  0  0
    5.4671    0.2523   -1.2019 C   0  0  0  0  0  0  0  0  0  0  0  0
    4.9170   -1.0991   -0.9419 C   0  0  0  0  0  0  0  0  0  0  0  0
    5.1320   -1.5750    0.5094 C   0  0  0  0  0  0  0  0  0  0  0  0
    6.6067   -1.6086    0.8367 C   0  0  0  0  0  0  0  0  0  0  0  0
    4.5415   -2.9788    0.5432 C   0  0  0  0  0  0  0  0  0  0  0  0
  1  2  2  0
  2  3  1  0
  3  4  1  0
  4  5  1  0
  5  6  1  6
  5  7  1  0
  7  8  1  0
  8  9  2  0
  9 10  1  0
 10 11  2  0
 11 12  1  0
 12 13  1  0
 13 14  1  0
 14 15  1  0
 15 16  1  6
 15 17  1  0
 17 18  1  1
 18 19  1  0
 20 19  1  1
 20 21  1  0
 21 22  1  6
 21 23  1  0
 23 24  1  0
 24 25  1  0
 25 26  1  0
 26 27  1  0
 26 28  1  0
  8  2  1  0
 17 11  1  0
 20 15  1  0
M  END
>  <zinc_id>  (1) 
ZINC000004474460

>  <smiles>  (1) 
C=C1CC[C@H](O)C/C1=C/C=C1\CCC[C@@]2(C)[C@H]1CC[C@@H]2[C@H](C)CCCC(C)C

$$$$
