
     RDKit          3D

 21 21  0  0  0  0  0  0  0  0999 V2000
    1.0269   -2.5612    0.2287 C   0  0  0  0  0  0  0  0  0  0  0  0
    0.3544   -1.2119   -0.0029 C   0  0  0  0  0  0  0  0  0  0  0  0
   -0.4360   -1.0634   -1.0979 C   0  0  0  0  0  0  0  0  0  0  0  0
   -1.0832   -1.1144   -2.0919 C   0  0  0  0  0  0  0  0  0  0  0  0
   -1.9155   -0.1384   -2.7838 C   0  0  0  0  0  0  0  0  0  0  0  0
   -2.4832   -0.6012   -3.8966 C   0  0  0  0  0  0  0  0  0  0  0  0
   -2.2214   -2.0369   -4.3175 C   0  0  0  0  0  0  0  0  0  0  0  0
   -3.3374    0.1846   -4.7584 C   0  0  0  0  0  0  0  0  0  0  0  0
   -3.2985    1.6692   -4.4638 C   0  0  0  0  0  0  0  0  0  0  0  0
   -3.3024    1.8789   -2.9521 C   0  0  0  0  0  0  0  0  0  0  0  0
   -2.1169    1.2252   -2.3141 C   0  0  0  0  0  0  0  0  0  0  0  0
   -2.3613    1.1741   -0.8016 C   0  0  0  0  0  0  0  0  0  0  0  0
   -0.8879    2.0938   -2.5487 C   0  0  0  0  0  0  0  0  0  0  0  0
    0.6638   -0.3306    0.9482 C   0  0  0  0  0  0  0  0  0  0  0  0
    1.5312   -0.6089    2.0656 C   0  0  0  0  0  0  0  0  0  0  0  0
    1.8529    0.2291    3.0017 C   0  0  0  0  0  0  0  0  0  0  0  0
    2.7114   -0.0068    4.1292 C   0  0  0  0  0  0  0  0  0  0  0  0
    3.3074   -1.3863    4.2358 C   0  0  0  0  0  0  0  0  0  0  0  0
    3.0158    0.8536    5.0509 C   0  0  0  0  0  0  0  0  0  0  0  0
    3.9238    0.4644    6.1662 C   0  0  0  0  0  0  0  0  0  0  0  0
    5.0560    1.2872    6.1592 O   0  0  0  0  0  0  0  0  0  0  0  0
  1  2  1  0
  2  3  1  0
  3  4  2  0
  4  5  1  0
  5  6  2  0
  6  7  1  0
  6  8  1  0
  8  9  1  0
  9 10  1  0
 10 11  1  0
 11 12  1  0
 11 13  1  0
  2 14  2  0
 14 15  1  0
 15 16  2  0
 16 17  1  0
 17 18  1  0
 17 19  2  0
 19 20  1  0
 20 21  1  0
 11  5  1  0
M  END
>  <zinc_id>  (1) 
ZINC000003831417

>  <smiles>  (1) 
CC1=C(/C=C/C(C)=C/C=C/C(C)=C/CO)C(C)(C)CCC1

$$$$
