
     RDKit          3D

 35 39  0  0  0  0  0  0  0  0999 V2000
   -7.4821   -1.8389   -0.0031 C   0  0  0  0  0  0  0  0  0  0  0  0
   -6.3075   -1.2574    0.2763 C   0  0  0  0  0  0  0  0  0  0  0  0
   -6.2056   -0.1113    0.8294 O   0  0  0  0  0  0  0  0  0  0  0  0
   -5.1118   -1.8609   -0.0166 O   0  0  0  0  0  0  0  0  0  0  0  0
   -3.8281   -1.4668    0.1703 C   0  0  0  0  0  0  0  0  0  0  0  0
   -3.3468   -0.2667   -0.4629 C   0  0  0  0  0  0  0  0  0  0  0  0
   -4.1927    0.3170   -1.1694 O   0  0  0  0  0  0  0  0  0  0  0  0
   -2.0083    0.3892   -0.4106 C   0  0  1  0  0  0  0  0  0  0  0  0
   -2.0226    1.5570   -1.1546 O   0  0  0  0  0  0  0  0  0  0  0  0
   -1.9130    2.6488   -0.3582 C   0  0  0  0  0  0  0  0  0  0  0  0
   -3.2258    3.1976    0.1626 C   0  0  0  0  0  0  0  0  0  0  0  0
   -1.1939    3.8050   -1.0267 C   0  0  0  0  0  0  0  0  0  0  0  0
   -1.2262    2.2559    0.7549 O   0  0  0  0  0  0  0  0  0  0  0  0
   -2.0724    1.0517    1.0634 C   0  0  2  0  0  0  0  0  0  0  0  0
   -0.8745    0.1495    1.7335 C   0  0  0  0  0  0  0  0  0  0  0  0
    0.1019    0.4068    0.4952 C   0  0  1  0  0  0  0  0  0  0  0  0
    1.1037   -0.9085    0.7707 C   0  0  2  0  0  0  0  0  0  0  0  0
    1.9031   -0.0996    1.9417 C   0  0  0  0  0  0  0  0  0  0  0  0
    3.1653   -1.1382    2.0790 C   0  0  2  0  0  0  0  0  0  0  0  0
    3.7696   -0.4000    3.2306 F   0  0  0  0  0  0  0  0  0  0  0  0
    3.9504   -0.4033    0.8909 C   0  0  0  0  0  0  0  0  0  0  0  0
    4.8539    0.4533    1.1166 C   0  0  0  0  0  0  0  0  0  0  0  0
    5.4910    1.0404   -0.0496 C   0  0  0  0  0  0  0  0  0  0  0  0
    6.4113    1.9129    0.1006 O   0  0  0  0  0  0  0  0  0  0  0  0
    5.0771    0.6317   -1.3571 C   0  0  0  0  0  0  0  0  0  0  0  0
    4.1224   -0.2679   -1.4675 C   0  0  0  0  0  0  0  0  0  0  0  0
    3.4055   -0.9201   -0.3509 C   0  0  1  0  0  0  0  0  0  0  0  0
    3.7407   -2.3880   -0.4144 C   0  0  0  0  0  0  0  0  0  0  0  0
    2.0274   -0.5645   -0.4625 C   0  0  2  0  0  0  0  0  0  0  0  0
    1.9798    0.6894   -0.9212 F   0  0  0  0  0  0  0  0  0  0  0  0
    1.2807   -1.3141   -1.7012 C   0  0  1  0  0  0  0  0  0  0  0  0
    0.8381   -2.5773   -1.0034 O   0  0  0  0  0  0  0  0  0  0  0  0
   -0.1465   -0.5530   -1.7043 C   0  0  0  0  0  0  0  0  0  0  0  0
   -0.8554   -0.4568   -0.4918 C   0  0  2  0  0  0  0  0  0  0  0  0
   -1.2089   -1.7128    0.2402 C   0  0  0  0  0  0  0  0  0  0  0  0
  1  2  1  0
  2  3  2  0
  2  4  1  0
  4  5  1  0
  5  6  1  0
  6  7  2  0
  8  6  1  6
  8  9  1  0
  9 10  1  0
 10 11  1  0
 10 12  1  0
 10 13  1  0
 13 14  1  0
 14 15  1  1
 16 15  1  1
 16 17  1  0
 17 18  1  1
 18 19  1  0
 19 20  1  1
 19 21  1  0
 21 22  2  0
 22 23  1  0
 23 24  2  0
 23 25  1  0
 25 26  2  0
 26 27  1  0
 27 28  1  1
 27 29  1  0
 29 30  1  6
 29 31  1  0
 31 32  1  1
 31 33  1  0
 33 34  1  0
 34 35  1  1
 14  8  1  0
 34 16  1  0
 34  8  1  0
 29 17  1  0
 27 21  1  0
M  END
>  <zinc_id>  (1) 
ZINC000003977978

>  <smiles>  (1) 
CC(=O)OCC(=O)[C@@]12OC(C)(C)O[C@@H]1C[C@H]1[C@@H]3C[C@H](F)C4=CC(=O)C=C[C@]4(C)[C@@]3(F)[C@@H](O)C[C@@]12C

$$$$
