
     RDKit          3D

 21 23  0  0  0  0  0  0  0  0999 V2000
   -4.0564    2.3139    1.5860 C   0  0  0  0  0  0  0  0  0  0  0  0
   -3.8258    2.0287    1.4405 O   0  0  0  0  0  0  0  0  0  0  0  0
   -3.1355    0.9423    0.8959 C   0  0  0  0  0  0  0  0  0  0  0  0
   -3.7623   -0.1339    0.4229 N   0  0  0  0  0  0  0  0  0  0  0  0
   -3.0204   -1.1552   -0.0937 C   0  0  0  0  0  0  0  0  0  0  0  0
   -3.7740   -2.2682   -0.5776 N   0  0  0  0  0  0  0  0  0  0  0  0
   -1.6813   -1.1014   -0.1365 N   0  0  0  0  0  0  0  0  0  0  0  0
   -1.0104   -0.0205    0.3365 C   0  0  0  0  0  0  0  0  0  0  0  0
   -1.7621    1.0340    0.8693 C   0  0  0  0  0  0  0  0  0  0  0  0
   -0.8771    1.9546    1.2562 N   0  0  0  0  0  0  0  0  0  0  0  0
    0.3401    1.4811    0.9723 C   0  0  0  0  0  0  0  0  0  0  0  0
    0.2727    0.3292    0.4354 N   0  0  0  0  0  0  0  0  0  0  0  0
    1.3426   -0.6773   -0.0910 C   0  0  2  0  0  0  0  0  0  0  0  0
    2.6062    0.0081    0.4535 O   0  0  0  0  0  0  0  0  0  0  0  0
    3.2059   -1.1763   -0.2907 C   0  0  2  0  0  0  0  0  0  0  0  0
    4.7598   -0.7640    0.0689 C   0  0  0  0  0  0  0  0  0  0  0  0
    5.0123    0.4717   -0.4229 O   0  0  0  0  0  0  0  0  0  0  0  0
    3.1699   -0.3177   -1.7731 C   0  0  1  0  0  0  0  0  0  0  0  0
    2.8884   -1.5737   -2.5773 O   0  0  0  0  0  0  0  0  0  0  0  0
    1.5185    0.0687   -1.6429 C   0  0  2  0  0  0  0  0  0  0  0  0
    1.7890    1.4563   -1.1319 O   0  0  0  0  0  0  0  0  0  0  0  0
  1  2  1  0
  2  3  1  0
  3  4  2  0
  4  5  1  0
  5  6  1  0
  5  7  2  0
  7  8  1  0
  8  9  2  0
  9 10  1  0
 10 11  2  0
 11 12  1  0
 13 12  1  1
 13 14  1  0
 14 15  1  0
 15 16  1  1
 16 17  1  0
 15 18  1  0
 18 19  1  6
 18 20  1  0
 20 21  1  1
  9  3  1  0
 20 13  1  0
 12  8  1  0
M  END
>  <zinc_id>  (1) 
ZINC000003823492

>  <smiles>  (1) 
COc1nc(N)nc2c1ncn2[C@@H]1O[C@H](CO)[C@@H](O)[C@@H]1O

$$$$
