
     RDKit          3D

 20 23  0  0  0  0  0  0  0  0999 V2000
   -2.1974   -3.7353   -2.9225 C   0  0  0  0  0  0  0  0  0  0  0  0
   -0.9840   -3.1610   -2.4808 O   0  0  0  0  0  0  0  0  0  0  0  0
   -1.0460   -1.9528   -1.7585 C   0  0  0  0  0  0  0  0  0  0  0  0
   -2.2494   -1.3348   -1.4817 C   0  0  0  0  0  0  0  0  0  0  0  0
   -2.3490   -0.1499   -0.7765 C   0  0  0  0  0  0  0  0  0  0  0  0
   -1.1894    0.4068   -0.3498 C   0  0  0  0  0  0  0  0  0  0  0  0
    0.0410   -0.1607   -0.5938 C   0  0  0  0  0  0  0  0  0  0  0  0
    0.0956   -1.3320   -1.2945 C   0  0  0  0  0  0  0  0  0  0  0  0
    1.1406    0.6095   -0.0363 C   0  0  2  0  0  0  0  0  0  0  0  0
    2.4321   -0.0145   -0.3281 C   0  0  0  0  0  0  0  0  0  0  0  0
    2.6765   -1.3465    0.2626 C   0  0  0  0  0  0  0  0  0  0  0  0
    1.9787   -1.6589    1.5295 C   0  0  0  0  0  0  0  0  0  0  0  0
    0.6354   -0.9696    1.6856 C   0  0  0  0  0  0  0  0  0  0  0  0
    1.0849    0.5850    1.5672 C   0  0  2  0  0  0  0  0  0  0  0  0
   -0.4387    1.2704    1.8770 C   0  0  2  0  0  0  0  0  0  0  0  0
   -0.9931    1.6449    0.4037 C   0  0  0  0  0  0  0  0  0  0  0  0
    0.2045    2.7186    2.0298 N   0  0  0  0  0  0  0  0  0  0  0  0
   -0.9802    3.5558    1.9485 C   0  0  0  0  0  0  0  0  0  0  0  0
    1.0801    2.9340    0.9584 C   0  0  0  0  0  0  0  0  0  0  0  0
    1.0580    2.0910   -0.2399 C   0  0  0  0  0  0  0  0  0  0  0  0
  1  2  1  0
  2  3  1  0
  3  4  2  0
  4  5  1  0
  5  6  2  0
  6  7  1  0
  7  8  2  0
  7  9  1  0
  9 10  1  1
 10 11  1  0
 11 12  1  0
 12 13  1  0
 14 13  1  6
 14 15  1  0
 15 16  1  6
 15 17  1  0
 17 18  1  0
 17 19  1  0
 19 20  1  0
  8  3  1  0
 14  9  1  0
 16  6  1  0
 20  9  1  0
M  END
>  <zinc_id>  (1) 
ZINC000003201907

>  <smiles>  (1) 
COc1ccc2c(c1)[C@]13CCCC[C@@H]1[C@H](C2)N(C)CC3

$$$$
