
     RDKit          3D

 27 30  0  0  0  0  0  0  0  0999 V2000
   -4.4381    0.8955    2.6776 C   0  0  0  0  0  0  0  0  0  0  0  0
   -3.8714    0.7023    1.2962 C   0  0  0  0  0  0  0  0  0  0  0  0
   -3.9289    1.6796    0.5427 O   0  0  0  0  0  0  0  0  0  0  0  0
   -3.3371   -0.4787    0.9256 O   0  0  0  0  0  0  0  0  0  0  0  0
   -2.7831   -0.8023   -0.3054 C   0  0  2  0  0  0  0  0  0  0  0  0
   -3.8141   -0.6490   -1.3599 C   0  0  0  0  0  0  0  0  0  0  0  0
   -3.5704   -0.8467   -2.8222 C   0  0  0  0  0  0  0  0  0  0  0  0
   -4.9619   -0.3421   -1.0866 O   0  0  0  0  0  0  0  0  0  0  0  0
   -2.5204   -2.3362   -0.3085 C   0  0  0  0  0  0  0  0  0  0  0  0
   -1.0254   -2.5171   -0.3804 C   0  0  0  0  0  0  0  0  0  0  0  0
   -0.6662   -1.2012    0.5090 C   0  0  1  0  0  0  0  0  0  0  0  0
    0.8557   -0.9806   -0.2652 C   0  0  2  0  0  0  0  0  0  0  0  0
    1.5816   -1.9293    0.7654 C   0  0  0  0  0  0  0  0  0  0  0  0
    2.7486   -1.5115    1.2391 C   0  0  0  0  0  0  0  0  0  0  0  0
    3.3760   -0.2668    0.8731 C   0  0  0  0  0  0  0  0  0  0  0  0
    4.6437    0.0483    1.2174 C   0  0  0  0  0  0  0  0  0  0  0  0
    5.1448    1.3792    0.7606 C   0  0  0  0  0  0  0  0  0  0  0  0
    6.2912    1.5485    0.3031 O   0  0  0  0  0  0  0  0  0  0  0  0
    4.1880    2.4820    0.8883 C   0  0  0  0  0  0  0  0  0  0  0  0
    2.8895    2.1342    0.3023 C   0  0  0  0  0  0  0  0  0  0  0  0
    2.6252    0.7030    0.0865 C   0  0  1  0  0  0  0  0  0  0  0  0
    2.6066    0.4434   -1.3802 C   0  0  0  0  0  0  0  0  0  0  0  0
    1.0969    0.4281    0.6514 C   0  0  1  0  0  0  0  0  0  0  0  0
    0.3950    1.3409   -0.5366 C   0  0  0  0  0  0  0  0  0  0  0  0
   -1.0661    1.0853   -0.2318 C   0  0  0  0  0  0  0  0  0  0  0  0
   -1.4395   -0.2617   -0.6073 C   0  0  2  0  0  0  0  0  0  0  0  0
   -1.0201   -0.7471   -1.9512 C   0  0  0  0  0  0  0  0  0  0  0  0
  1  2  1  0
  2  3  2  0
  2  4  1  0
  5  4  1  1
  5  6  1  0
  6  7  1  0
  6  8  2  0
  5  9  1  0
  9 10  1  0
 11 10  1  6
 11 12  1  0
 12 13  1  1
 13 14  2  0
 14 15  1  0
 15 16  2  0
 16 17  1  0
 17 18  2  0
 17 19  1  0
 19 20  1  0
 20 21  1  0
 21 22  1  6
 21 23  1  0
 23 24  1  6
 24 25  1  0
 25 26  1  0
 26 27  1  6
 26  5  1  0
 26 11  1  0
 23 12  1  0
 21 15  1  0
M  END
>  <zinc_id>  (1) 
ZINC000003881640

>  <smiles>  (1) 
CC(=O)O[C@]1(C(C)=O)CC[C@H]2[C@@H]3C=CC4=CC(=O)CC[C@]4(C)[C@H]3CC[C@@]21C

$$$$
