
     RDKit          3D

 17 18  0  0  0  0  0  0  0  0999 V2000
   -1.4786    3.4676    0.8748 C   0  0  0  0  0  0  0  0  0  0  0  0
   -1.2759    2.5419    0.0920 O   0  0  0  0  0  0  0  0  0  0  0  0
   -0.1540    1.7397    0.0656 C   0  0  0  0  0  0  0  0  0  0  0  0
    0.7139    1.9578    0.8811 O   0  0  0  0  0  0  0  0  0  0  0  0
    0.0264    0.5971   -0.9483 C   0  0  2  0  0  0  0  0  0  0  0  0
   -1.1700   -0.3434   -0.5232 C   0  0  0  0  0  0  0  0  0  0  0  0
   -2.3042    0.1718    0.0045 C   0  0  0  0  0  0  0  0  0  0  0  0
   -3.3250   -0.6737    0.3598 C   0  0  0  0  0  0  0  0  0  0  0  0
   -3.1799   -2.0278    0.1745 C   0  0  0  0  0  0  0  0  0  0  0  0
   -2.0494   -2.5803   -0.3551 C   0  0  0  0  0  0  0  0  0  0  0  0
   -1.0483   -1.6868   -0.6976 C   0  0  0  0  0  0  0  0  0  0  0  0
    1.2098   -0.3183   -0.1737 C   0  0  2  0  0  0  0  0  0  0  0  0
    2.3879    0.8083   -0.1979 C   0  0  0  0  0  0  0  0  0  0  0  0
    3.4764    0.1147    0.5968 C   0  0  0  0  0  0  0  0  0  0  0  0
    3.4014   -1.3458    0.2203 C   0  0  0  0  0  0  0  0  0  0  0  0
    3.0503   -1.4335   -1.2369 C   0  0  0  0  0  0  0  0  0  0  0  0
    1.7192   -0.9894   -1.5241 N   0  0  0  0  0  0  0  0  0  0  0  0
  1  2  1  0
  2  3  1  0
  3  4  2  0
  5  3  1  1
  5  6  1  0
  6  7  2  0
  7  8  1  0
  8  9  2  0
  9 10  1  0
 10 11  2  0
  5 12  1  0
 12 13  1  6
 13 14  1  0
 14 15  1  0
 15 16  1  0
 16 17  1  0
 11  6  1  0
 17 12  1  0
M  END
>  <zinc_id>  (1) 
ZINC000000001267

>  <smiles>  (1) 
COC(=O)[C@H](c1ccccc1)[C@@H]1CCCCN1

$$$$
