
     RDKit          3D

 28 31  0  0  0  0  0  0  0  0999 V2000
   -0.5565   -2.3768    0.8341 C   0  0  0  0  0  0  0  0  0  0  0  0
   -0.6977   -1.5265   -0.3545 C   0  0  2  0  0  0  0  0  0  0  0  0
    0.5600   -1.5130   -0.9683 C   0  0  0  0  0  0  0  0  0  0  0  0
    1.8476   -0.7750   -0.3493 C   0  0  2  0  0  0  0  0  0  0  0  0
    1.8634   -1.6320    0.8917 O   0  0  0  0  0  0  0  0  0  0  0  0
    1.1802    0.5102    0.3665 C   0  0  1  0  0  0  0  0  0  0  0  0
    0.6706    1.1931   -0.7773 F   0  0  0  0  0  0  0  0  0  0  0  0
    0.0393   -0.0411    1.2496 C   0  0  1  0  0  0  0  0  0  0  0  0
   -0.2827    0.9851    2.2732 C   0  0  0  0  0  0  0  0  0  0  0  0
   -0.3549    2.2533    1.5213 C   0  0  0  0  0  0  0  0  0  0  0  0
    1.0470    2.6752    1.0338 C   0  0  0  0  0  0  0  0  0  0  0  0
    1.4337    3.8012    0.6913 C   0  0  0  0  0  0  0  0  0  0  0  0
    2.7443    4.2137    0.2158 C   0  0  0  0  0  0  0  0  0  0  0  0
    3.0141    5.3904   -0.0990 O   0  0  0  0  0  0  0  0  0  0  0  0
    3.6569    3.0792    0.1674 C   0  0  0  0  0  0  0  0  0  0  0  0
    3.1991    1.9217    0.5488 C   0  0  0  0  0  0  0  0  0  0  0  0
    1.9531    1.4810    1.0373 C   0  0  2  0  0  0  0  0  0  0  0  0
    2.3531    1.1316    2.4919 C   0  0  0  0  0  0  0  0  0  0  0  0
   -1.0733   -0.0496    0.0694 C   0  0  2  0  0  0  0  0  0  0  0  0
   -2.3415   -0.5319    0.9136 C   0  0  0  0  0  0  0  0  0  0  0  0
   -3.1377   -1.0933   -0.3991 C   0  0  1  0  0  0  0  0  0  0  0  0
   -2.9304    0.1045   -1.2848 O   0  0  0  0  0  0  0  0  0  0  0  0
   -1.9108   -1.9798   -0.9800 C   0  0  1  0  0  0  0  0  0  0  0  0
   -1.8668   -1.8134   -2.3502 O   0  0  0  0  0  0  0  0  0  0  0  0
   -2.4287   -3.3203   -0.5982 C   0  0  0  0  0  0  0  0  0  0  0  0
   -2.6237   -3.7039    0.5381 O   0  0  0  0  0  0  0  0  0  0  0  0
   -2.7754   -4.3715   -1.6025 C   0  0  0  0  0  0  0  0  0  0  0  0
   -2.5822   -4.0121   -2.8945 O   0  0  0  0  0  0  0  0  0  0  0  0
  2  1  1  1
  2  3  1  0
  3  4  1  0
  4  5  1  1
  4  6  1  0
  6  7  1  6
  6  8  1  0
  8  9  1  1
  9 10  1  0
 10 11  1  0
 11 12  2  0
 12 13  1  0
 13 14  2  0
 13 15  1  0
 15 16  2  0
 16 17  1  0
 17 18  1  1
  8 19  1  0
 19 20  1  1
 20 21  1  0
 21 22  1  6
 21 23  1  0
 23 24  1  6
 23 25  1  0
 25 26  2  0
 25 27  1  0
 27 28  1  0
 19  2  1  0
 23  2  1  0
 17  6  1  0
 17 11  1  0
M  END
>  <zinc_id>  (1) 
ZINC000003882036

>  <smiles>  (1) 
C[C@]12C[C@H](O)[C@@]3(F)[C@@H](CCC4=CC(=O)C=C[C@@]43C)[C@@H]1C[C@@H](O)[C@]2(O)C(=O)CO

$$$$
