
     RDKit          3D

 26 28  0  0  0  0  0  0  0  0999 V2000
   -7.6814    0.5504   -2.0922 C   0  0  0  0  0  0  0  0  0  0  0  0
   -6.3761    0.9345   -1.7451 O   0  0  0  0  0  0  0  0  0  0  0  0
   -5.4366   -0.0433   -1.4136 C   0  0  0  0  0  0  0  0  0  0  0  0
   -5.7385   -1.3837   -1.4125 C   0  0  0  0  0  0  0  0  0  0  0  0
   -4.7651   -2.3005   -1.0753 C   0  0  0  0  0  0  0  0  0  0  0  0
   -3.5231   -1.8815   -0.7485 N   0  0  0  0  0  0  0  0  0  0  0  0
   -3.2076   -0.5752   -0.7436 C   0  0  0  0  0  0  0  0  0  0  0  0
   -1.8301   -0.1752   -0.3769 C   0  0  0  0  0  0  0  0  0  0  0  0
   -0.8305   -1.6612    0.0048 S   0  0  0  0  0  0  0  0  0  0  0  0
   -1.4289   -2.1057    1.3526 O   0  0  0  0  0  0  0  0  0  0  0  0
    0.7505   -0.9374    0.4083 C   0  0  0  0  0  0  0  0  0  0  0  0
    1.1001   -0.5324    1.6314 N   0  0  0  0  0  0  0  0  0  0  0  0
    2.3649   -0.0286    1.6057 C   0  0  0  0  0  0  0  0  0  0  0  0
    3.2115    0.5137    2.5381 C   0  0  0  0  0  0  0  0  0  0  0  0
    4.4729    0.9485    2.1997 C   0  0  0  0  0  0  0  0  0  0  0  0
    4.9445    0.8585    0.9044 C   0  0  0  0  0  0  0  0  0  0  0  0
    6.2161    1.2964    0.5612 O   0  0  0  0  0  0  0  0  0  0  0  0
    6.6237    1.1679   -0.7932 C   0  0  0  0  0  0  0  0  0  0  0  0
    7.8906    1.6338   -0.9980 F   0  0  0  0  0  0  0  0  0  0  0  0
    6.5179   -0.1584   -1.2078 F   0  0  0  0  0  0  0  0  0  0  0  0
    4.0801    0.3087   -0.0297 C   0  0  0  0  0  0  0  0  0  0  0  0
    2.8154   -0.1283    0.3051 C   0  0  0  0  0  0  0  0  0  0  0  0
    1.7998   -0.6847   -0.3777 N   0  0  0  0  0  0  0  0  0  0  0  0
   -4.1610    0.3351   -1.0746 C   0  0  0  0  0  0  0  0  0  0  0  0
   -3.8083    1.6827   -1.0617 O   0  0  0  0  0  0  0  0  0  0  0  0
   -4.0011    2.3657    0.1740 C   0  0  0  0  0  0  0  0  0  0  0  0
  1  2  1  0
  2  3  1  0
  3  4  2  0
  4  5  1  0
  5  6  2  0
  6  7  1  0
  7  8  1  0
  9  8  1  1
  9 10  2  0
  9 11  1  0
 11 12  2  0
 12 13  1  0
 13 14  2  0
 14 15  1  0
 15 16  2  0
 16 17  1  0
 17 18  1  0
 18 19  1  0
 18 20  1  0
 16 21  1  0
 21 22  2  0
 22 23  1  0
  7 24  2  0
 24 25  1  0
 25 26  1  0
 24  3  1  0
 23 11  1  0
 22 13  1  0
M  END
>  <zinc_id>  (1) 
ZINC000004676424

>  <smiles>  (1) 
COc1ccnc(C[S@@](=O)c2nc3ccc(OC(F)F)cc3[nH]2)c1OC

$$$$
