
     RDKit          3D

 29 34  0  0  0  0  0  0  0  0999 V2000
   -1.4801    5.4041   -0.2822 C   0  0  0  0  0  0  0  0  0  0  0  0
   -0.8900    4.1943   -0.1406 N   0  0  0  0  0  0  0  0  0  0  0  0
    0.3547    4.0313    0.5705 C   0  0  0  0  0  0  0  0  0  0  0  0
    0.6900    2.5402    0.5916 C   0  0  0  0  0  0  0  0  0  0  0  0
    1.9313    2.3618    0.5145 O   0  0  0  0  0  0  0  0  0  0  0  0
   -0.2774    1.5637    0.6861 N   0  0  0  0  0  0  0  0  0  0  0  0
   -1.6734    1.7542    0.1998 C   0  0  2  0  0  0  0  0  0  0  0  0
   -1.6630    0.6549   -1.0332 C   0  0  0  0  0  0  0  0  0  0  0  0
   -1.7599   -0.5688   -0.2230 C   0  0  0  0  0  0  0  0  0  0  0  0
   -2.6108   -1.6746   -0.4329 C   0  0  0  0  0  0  0  0  0  0  0  0
   -3.5630   -1.9756   -1.3748 C   0  0  0  0  0  0  0  0  0  0  0  0
   -4.2319   -3.1710   -1.2938 C   0  0  0  0  0  0  0  0  0  0  0  0
   -3.9348   -4.0357   -0.2761 C   0  0  0  0  0  0  0  0  0  0  0  0
   -2.9787   -3.7122    0.6537 C   0  0  0  0  0  0  0  0  0  0  0  0
   -2.2875   -2.5217    0.6035 C   0  0  0  0  0  0  0  0  0  0  0  0
   -1.3145   -1.9542    1.3699 N   0  0  0  0  0  0  0  0  0  0  0  0
   -0.9984   -0.7497    0.8488 C   0  0  0  0  0  0  0  0  0  0  0  0
    0.0606    0.2843    1.3752 C   0  0  1  0  0  0  0  0  0  0  0  0
    1.3295   -0.2159    0.5278 C   0  0  0  0  0  0  0  0  0  0  0  0
    1.3333   -0.2780   -0.7914 C   0  0  0  0  0  0  0  0  0  0  0  0
    2.4631   -0.7241   -1.4348 C   0  0  0  0  0  0  0  0  0  0  0  0
    3.5927   -1.1082   -0.7332 C   0  0  0  0  0  0  0  0  0  0  0  0
    3.5460   -1.0276    0.6434 C   0  0  0  0  0  0  0  0  0  0  0  0
    2.4185   -0.5821    1.2917 C   0  0  0  0  0  0  0  0  0  0  0  0
    4.7973   -1.4660    1.1417 O   0  0  0  0  0  0  0  0  0  0  0  0
    5.6975   -1.5248    0.0701 C   0  0  0  0  0  0  0  0  0  0  0  0
    4.8483   -1.5870   -1.0826 O   0  0  0  0  0  0  0  0  0  0  0  0
   -1.4979    3.0585   -0.7148 C   0  0  0  0  0  0  0  0  0  0  0  0
   -1.9014    3.0300   -1.8910 O   0  0  0  0  0  0  0  0  0  0  0  0
  1  2  1  0
  2  3  1  0
  3  4  1  0
  4  5  2  0
  4  6  1  0
  6  7  1  0
  7  8  1  6
  8  9  1  0
  9 10  1  0
 10 11  2  0
 11 12  1  0
 12 13  2  0
 13 14  1  0
 14 15  2  0
 15 16  1  0
 16 17  1  0
 17 18  1  0
 18 19  1  6
 19 20  2  0
 20 21  1  0
 21 22  2  0
 22 23  1  0
 23 24  2  0
 23 25  1  0
 25 26  1  0
 26 27  1  0
  7 28  1  0
 28 29  2  0
 28  2  1  0
 18  6  1  0
 24 19  1  0
 17  9  2  0
 27 22  1  0
 15 10  1  0
M  END
>  <zinc_id>  (1) 
ZINC000003993855

>  <smiles>  (1) 
CN1CC(=O)N2[C@H](Cc3c([nH]c4ccccc34)[C@H]2c2ccc3c(c2)OCO3)C1=O

$$$$
