
     RDKit          3D

 41 45  0  0  0  0  0  0  0  0999 V2000
   -2.3725   -3.0280   -1.5218 C   0  0  0  0  0  0  0  0  0  0  0  0
   -3.3662   -3.2913   -1.2492 C   0  0  0  0  0  0  0  0  0  0  0  0
   -4.4530   -2.3984   -1.8544 C   0  0  0  0  0  0  0  0  0  0  0  0
   -3.7311   -4.6001   -1.6366 O   0  0  0  0  0  0  0  0  0  0  0  0
   -3.6163   -3.2023    0.2411 C   0  0  0  0  0  0  0  0  0  0  0  0
   -4.0955   -4.2684    0.9417 C   0  0  0  0  0  0  0  0  0  0  0  0
   -4.3222   -4.2005    2.3073 C   0  0  0  0  0  0  0  0  0  0  0  0
   -4.0459   -3.0162    2.9355 C   0  0  0  0  0  0  0  0  0  0  0  0
   -3.5625   -1.9406    2.2292 C   0  0  0  0  0  0  0  0  0  0  0  0
   -3.3350   -2.0048    0.8605 C   0  0  0  0  0  0  0  0  0  0  0  0
   -2.8213   -0.8270    0.0958 C   0  0  0  0  0  0  0  0  0  0  0  0
   -3.1232    0.4611    0.7999 C   0  0  0  0  0  0  0  0  0  0  0  0
   -2.5984    1.6619   -0.0745 C   0  0  1  0  0  0  0  0  0  0  0  0
   -3.1791    3.0350    1.1540 S   0  0  0  0  0  0  0  0  0  0  0  0
   -2.6376    4.5434    0.2636 C   0  0  0  0  0  0  0  0  0  0  0  0
   -3.3953    4.7347   -1.0351 C   0  0  0  0  0  0  0  0  0  0  0  0
   -4.8889    4.9078   -1.0512 C   0  0  0  0  0  0  0  0  0  0  0  0
   -5.6321    3.7947   -0.4991 C   0  0  0  0  0  0  0  0  0  0  0  0
   -6.0799    3.8245    0.6712 O   0  0  0  0  0  0  0  0  0  0  0  0
   -5.8517    2.6788   -1.2758 O   0  0  0  0  0  0  0  0  0  0  0  0
   -2.8614    4.0410   -2.2545 C   0  0  0  0  0  0  0  0  0  0  0  0
   -2.7053    5.5564   -2.1503 C   0  0  0  0  0  0  0  0  0  0  0  0
   -1.1242    1.6253    0.3338 C   0  0  0  0  0  0  0  0  0  0  0  0
   -0.4808    2.5709    1.0310 C   0  0  0  0  0  0  0  0  0  0  0  0
    0.8774    2.5145    1.3493 C   0  0  0  0  0  0  0  0  0  0  0  0
    1.5475    1.4178    0.9038 C   0  0  0  0  0  0  0  0  0  0  0  0
    0.9538    0.4224    0.1933 C   0  0  0  0  0  0  0  0  0  0  0  0
    1.7350   -0.7200   -0.2922 C   0  0  0  0  0  0  0  0  0  0  0  0
    2.8895   -0.9806   -0.2774 C   0  0  0  0  0  0  0  0  0  0  0  0
    4.2039   -1.4187   -0.3325 C   0  0  0  0  0  0  0  0  0  0  0  0
    4.6063   -2.6727   -0.8067 C   0  0  0  0  0  0  0  0  0  0  0  0
    5.9250   -3.0362   -0.8591 C   0  0  0  0  0  0  0  0  0  0  0  0
    6.8727   -2.1302   -0.4304 C   0  0  0  0  0  0  0  0  0  0  0  0
    8.2144   -2.3968   -0.4529 C   0  0  0  0  0  0  0  0  0  0  0  0
    9.1514   -1.4660   -0.0227 C   0  0  0  0  0  0  0  0  0  0  0  0
    8.7499   -0.2508    0.4366 C   0  0  0  0  0  0  0  0  0  0  0  0
    9.8734    0.9850    0.9862 Cl  0  0  0  0  0  0  0  0  0  0  0  0
    7.4223    0.0433    0.4707 C   0  0  0  0  0  0  0  0  0  0  0  0
    6.4796   -0.8990    0.0364 C   0  0  0  0  0  0  0  0  0  0  0  0
    5.1996   -0.5890    0.0713 N   0  0  0  0  0  0  0  0  0  0  0  0
   -0.4222    0.5190   -0.1081 C   0  0  0  0  0  0  0  0  0  0  0  0
  1  2  1  0
  2  3  1  0
  2  4  1  0
  2  5  1  0
  5  6  2  0
  6  7  1  0
  7  8  2  0
  8  9  1  0
  9 10  2  0
 10 11  1  0
 11 12  1  0
 13 12  1  1
 13 14  1  0
 14 15  1  0
 15 16  1  0
 16 17  1  0
 17 18  1  0
 18 19  2  0
 18 20  1  0
 16 21  1  0
 21 22  1  0
 13 23  1  0
 23 24  2  0
 24 25  1  0
 25 26  2  0
 26 27  1  0
 27 28  1  0
 28 29  2  0
 29 30  1  0
 30 31  2  0
 31 32  1  0
 32 33  2  0
 33 34  1  0
 34 35  2  0
 35 36  1  0
 36 37  1  0
 36 38  2  0
 38 39  1  0
 39 40  2  0
 27 41  2  0
 10  5  1  0
 22 16  1  0
 41 23  1  0
 40 30  1  0
 39 33  1  0
M  END
>  <zinc_id>  (1) 
ZINC000003831151

>  <smiles>  (1) 
CC(C)(O)c1ccccc1CC[C@@H](SCC1(CC(=O)O)CC1)c1cccc(/C=C/c2ccc3ccc(Cl)cc3n2)c1

$$$$
