
     RDKit          3D

 18 18  0  0  0  0  0  0  0  0999 V2000
    4.4766    1.8716   -1.4814 C   0  0  0  0  0  0  0  0  0  0  0  0
    4.2452    1.5596   -0.6250 C   0  0  0  0  0  0  0  0  0  0  0  0
    3.9900    0.2422   -0.1300 N   0  0  0  0  0  0  0  0  0  0  0  0
    5.1100   -0.5529    0.4055 C   0  0  0  0  0  0  0  0  0  0  0  0
    2.6793   -0.2892   -0.1551 C   0  0  0  0  0  0  0  0  0  0  0  0
    2.4659   -1.4489    0.2846 O   0  0  0  0  0  0  0  0  0  0  0  0
    1.6506    0.4780   -0.6648 O   0  0  0  0  0  0  0  0  0  0  0  0
    0.3256   -0.0067   -0.7116 C   0  0  0  0  0  0  0  0  0  0  0  0
   -0.0897   -0.6989   -1.8393 C   0  0  0  0  0  0  0  0  0  0  0  0
   -1.3808   -1.1841   -1.9116 C   0  0  0  0  0  0  0  0  0  0  0  0
   -2.2717   -0.9817   -0.8547 C   0  0  0  0  0  0  0  0  0  0  0  0
   -1.8054   -0.3069    0.2005 C   0  0  0  0  0  0  0  0  0  0  0  0
   -2.7913   -0.0386    1.4607 C   0  0  2  0  0  0  0  0  0  0  0  0
   -3.3351   -1.6130    1.5448 C   0  0  0  0  0  0  0  0  0  0  0  0
   -4.0112    0.4328    0.5465 N   0  0  0  0  0  0  0  0  0  0  0  0
   -3.6018    1.8371    0.3648 C   0  0  0  0  0  0  0  0  0  0  0  0
   -5.1207    0.4909    1.4904 C   0  0  0  0  0  0  0  0  0  0  0  0
   -0.5355    0.2087    0.3506 C   0  0  0  0  0  0  0  0  0  0  0  0
  1  2  1  0
  2  3  1  0
  3  4  1  0
  3  5  1  0
  5  6  2  0
  5  7  1  0
  7  8  1  0
  8  9  2  0
  9 10  1  0
 10 11  2  0
 11 12  1  0
 12 13  1  0
 13 14  1  6
 13 15  1  0
 15 16  1  0
 15 17  1  0
 12 18  2  0
 18  8  1  0
M  END
>  <zinc_id>  (1) 
ZINC000000004413

>  <smiles>  (1) 
CCN(C)C(=O)Oc1cccc([C@H](C)N(C)C)c1

$$$$
