
     RDKit          2D

 17 18  0  0  0  0  0  0  0  0999 V2000
    5.5837   -0.5153    0.0000 N   0  0  0  0  0  0  0  0  0  0  0  0
    4.0855   -0.4436    0.0000 C   0  0  0  0  0  0  0  0  0  0  0  0
    3.2743   -1.7054    0.0000 C   0  0  0  0  0  0  0  0  0  0  0  0
    1.7760   -1.6337    0.0000 C   0  0  0  0  0  0  0  0  0  0  0  0
    1.0889   -0.3004    0.0000 N   0  0  0  0  0  0  0  0  0  0  0  0
   -0.4094   -0.2287    0.0000 C   0  0  0  0  0  0  0  0  0  0  0  0
   -1.3480   -1.3988    0.0000 O   0  0  0  0  0  0  0  0  0  0  0  0
   -2.7508   -0.8677    0.0000 C   0  0  0  0  0  0  0  0  0  0  0  0
   -4.0051   -1.6904    0.0000 C   0  0  0  0  0  0  0  0  0  0  0  0
   -5.3447   -1.0155    0.0000 O   0  0  0  0  0  0  0  0  0  0  0  0
   -2.6792    0.6306    0.0000 C   0  0  0  0  0  0  0  0  0  0  0  0
   -3.8493    1.5692    0.0000 O   0  0  0  0  0  0  0  0  0  0  0  0
   -1.2321    1.0255    0.0000 C   0  0  0  0  0  0  0  0  0  0  0  0
   -0.7010    2.4283    0.0000 O   0  0  0  0  0  0  0  0  0  0  0  0
    1.9001    0.9614    0.0000 C   0  0  0  0  0  0  0  0  0  0  0  0
    1.2129    2.2947    0.0000 O   0  0  0  0  0  0  0  0  0  0  0  0
    3.3983    0.8897    0.0000 N   0  0  0  0  0  0  0  0  0  0  0  0
  1  2  1  0
  2  3  1  0
  3  4  2  0
  4  5  1  0
  6  5  1  6
  6  7  1  0
  7  8  1  0
  8  9  1  6
  9 10  1  0
  8 11  1  0
 11 12  1  1
 11 13  1  0
 13 14  1  6
  5 15  1  0
 15 16  2  0
 15 17  1  0
 17  2  2  0
 13  6  1  0
M  END
>  <zinc_id>  (1) 
ZINC000003795098

>  <smiles>  (1) 
Nc1ccn([C@@H]2O[C@H](CO)[C@@H](O)[C@@H]2O)c(=O)n1

$$$$
