
     RDKit          3D

 23 24  0  0  0  0  0  0  0  0999 V2000
    5.6683    1.2048    1.9632 C   0  0  0  0  0  0  0  0  0  0  0  0
    5.4619    1.3530    1.5707 C   0  0  0  0  0  0  0  0  0  0  0  0
    4.2619    1.7951    0.8255 N   0  0  0  0  0  0  0  0  0  0  0  0
    4.5984    2.0818   -0.5493 C   0  0  0  0  0  0  0  0  0  0  0  0
    5.4757    3.3127   -0.5550 C   0  0  0  0  0  0  0  0  0  0  0  0
    5.7911    3.5720   -1.8883 O   0  0  0  0  0  0  0  0  0  0  0  0
    3.2012    0.8094    0.9275 C   0  0  0  0  0  0  0  0  0  0  0  0
    2.0389    1.3903    0.1557 C   0  0  0  0  0  0  0  0  0  0  0  0
    0.8233    0.5575    0.1142 C   0  0  0  0  0  0  0  0  0  0  0  0
    0.2948    0.2993    1.6342 C   0  0  1  0  0  0  0  0  0  0  0  0
    0.0968    1.9108    1.9469 C   0  0  0  0  0  0  0  0  0  0  0  0
   -1.1902    0.1159    1.2186 N   0  0  0  0  0  0  0  0  0  0  0  0
   -1.5240   -0.9268    0.3404 C   0  0  0  0  0  0  0  0  0  0  0  0
   -0.5306   -1.7706   -0.1068 C   0  0  0  0  0  0  0  0  0  0  0  0
   -0.8210   -2.7950   -0.9623 C   0  0  0  0  0  0  0  0  0  0  0  0
   -2.0674   -3.0005   -1.3818 N   0  0  0  0  0  0  0  0  0  0  0  0
   -3.0764   -2.1954   -0.9683 C   0  0  0  0  0  0  0  0  0  0  0  0
   -4.3800   -2.3654   -1.3737 C   0  0  0  0  0  0  0  0  0  0  0  0
   -5.4162   -1.5510   -0.9600 C   0  0  0  0  0  0  0  0  0  0  0  0
   -7.0645   -1.7953   -1.5015 Cl  0  0  0  0  0  0  0  0  0  0  0  0
   -5.0737   -0.5278   -0.0938 C   0  0  0  0  0  0  0  0  0  0  0  0
   -3.7749   -0.3091    0.3490 C   0  0  0  0  0  0  0  0  0  0  0  0
   -2.7936   -1.1656   -0.1100 C   0  0  0  0  0  0  0  0  0  0  0  0
  1  2  1  0
  2  3  1  0
  3  4  1  0
  4  5  1  0
  5  6  1  0
  3  7  1  0
  7  8  1  0
  8  9  1  0
  9 10  1  0
 10 11  1  1
 10 12  1  0
 12 13  1  0
 13 14  2  0
 14 15  1  0
 15 16  2  0
 16 17  1  0
 17 18  2  0
 18 19  1  0
 19 20  1  0
 19 21  2  0
 21 22  1  0
 22 23  2  0
 23 13  1  0
 23 17  1  0
M  END
>  <zinc_id>  (1) 
ZINC000001530652

>  <smiles>  (1) 
CCN(CCO)CCC[C@@H](C)Nc1ccnc2cc(Cl)ccc12

$$$$
