
     RDKit          3D

  4  3  0  0  0  0  0  0  0  0999 V2000
   -1.3794   -0.9186   -0.1259 C   0  0  0  0  0  0  0  0  0  0  0  0
    0.0023    0.0867    0.4154 S   0  0  0  0  0  0  0  0  0  0  0  0
    1.5369   -0.6639   -0.1302 C   0  0  0  0  0  0  0  0  0  0  0  0
   -0.1598    1.4958   -0.1592 O   0  0  0  0  0  0  0  0  0  0  0  0
  1  2  1  0
  2  3  1  0
  2  4  2  0
M  END
>  <zinc_id>  (1) 
ZINC000005224188

>  <smiles>  (1) 
CS(C)=O

$$$$
