
     RDKit          3D

 23 27  0  0  0  0  0  0  0  0999 V2000
    4.9936   -0.9095    0.0752 C   0  0  0  0  0  0  0  0  0  0  0  0
    4.0428   -0.4659    0.2154 O   0  0  0  0  0  0  0  0  0  0  0  0
    2.7299   -0.8729    0.0431 C   0  0  0  0  0  0  0  0  0  0  0  0
    2.4478   -2.1703   -0.4283 C   0  0  0  0  0  0  0  0  0  0  0  0
    1.1498   -2.6150   -0.6135 C   0  0  0  0  0  0  0  0  0  0  0  0
    0.1232   -1.7474   -0.3217 C   0  0  0  0  0  0  0  0  0  0  0  0
    0.4813   -0.5131    0.1286 C   0  0  0  0  0  0  0  0  0  0  0  0
    1.7046    0.0026    0.3369 C   0  0  0  0  0  0  0  0  0  0  0  0
    1.6039    1.2724    0.7870 O   0  0  0  0  0  0  0  0  0  0  0  0
    0.1612    1.6502    1.0053 C   0  0  1  0  0  0  0  0  0  0  0  0
    0.0649    2.6736   -0.2188 C   0  0  0  0  0  0  0  0  0  0  0  0
   -0.0887    3.8445    0.1814 O   0  0  0  0  0  0  0  0  0  0  0  0
    0.1435    2.3036   -1.5900 C   0  0  0  0  0  0  0  0  0  0  0  0
   -0.4445    0.9773   -1.9306 C   0  0  0  0  0  0  0  0  0  0  0  0
   -1.3652    0.6014   -0.7716 C   0  0  1  0  0  0  0  0  0  0  0  0
   -2.4093    1.5044   -0.7668 O   0  0  0  0  0  0  0  0  0  0  0  0
   -2.0517   -0.7813   -1.2306 C   0  0  1  0  0  0  0  0  0  0  0  0
   -1.3069   -1.9310   -0.4044 C   0  0  0  0  0  0  0  0  0  0  0  0
   -3.2568   -0.6952   -0.2021 N   0  0  0  0  0  0  0  0  0  0  0  0
   -3.7403   -2.0671   -0.2429 C   0  0  0  0  0  0  0  0  0  0  0  0
   -2.8520   -0.3807    1.0432 C   0  0  0  0  0  0  0  0  0  0  0  0
   -1.5301   -0.0814    1.5011 C   0  0  0  0  0  0  0  0  0  0  0  0
   -0.6011    0.4007    0.4096 C   0  0  1  0  0  0  0  0  0  0  0  0
  1  2  1  0
  2  3  1  0
  3  4  2  0
  4  5  1  0
  5  6  2  0
  6  7  1  0
  7  8  2  0
  8  9  1  0
 10  9  1  6
 10 11  1  0
 11 12  2  0
 11 13  1  0
 13 14  1  0
 14 15  1  0
 15 16  1  1
 15 17  1  0
 17 18  1  1
 17 19  1  0
 19 20  1  0
 19 21  1  0
 21 22  1  0
 23 22  1  1
  8  3  1  0
 23 10  1  0
 18  6  1  0
 23  7  1  0
 23 15  1  0
M  END
>  <zinc_id>  (1) 
ZINC000000403533

>  <smiles>  (1) 
COc1ccc2c3c1O[C@H]1C(=O)CC[C@@]4(O)[C@@H](C2)N(C)CC[C@]314

$$$$
