
     RDKit          2D

 20 22  0  0  0  0  0  0  0  0999 V2000
    5.2109   -1.4212    0.0000 N   0  0  0  0  0  0  0  0  0  0  0  0
    4.0075   -0.5257    0.0000 C   0  0  0  0  0  0  0  0  0  0  0  0
    4.1813    0.9642    0.0000 N   0  0  0  0  0  0  0  0  0  0  0  0
    2.9779    1.8596    0.0000 C   0  0  0  0  0  0  0  0  0  0  0  0
    3.1517    3.3495    0.0000 Cl  0  0  0  0  0  0  0  0  0  0  0  0
    1.6007    1.2652    0.0000 N   0  0  0  0  0  0  0  0  0  0  0  0
    1.4269   -0.2247    0.0000 C   0  0  0  0  0  0  0  0  0  0  0  0
    2.6303   -1.1202    0.0000 C   0  0  0  0  0  0  0  0  0  0  0  0
    2.1505   -2.5414    0.0000 N   0  0  0  0  0  0  0  0  0  0  0  0
    0.6506   -2.5242    0.0000 C   0  0  0  0  0  0  0  0  0  0  0  0
    0.2034   -1.0925    0.0000 N   0  0  0  0  0  0  0  0  0  0  0  0
   -1.2178   -0.6127    0.0000 C   0  0  0  0  0  0  0  0  0  0  0  0
   -2.4413   -1.4805    0.0000 O   0  0  0  0  0  0  0  0  0  0  0  0
   -3.6447   -0.5850    0.0000 C   0  0  0  0  0  0  0  0  0  0  0  0
   -5.0765   -1.0322    0.0000 C   0  0  0  0  0  0  0  0  0  0  0  0
   -6.1796   -0.0159    0.0000 O   0  0  0  0  0  0  0  0  0  0  0  0
   -3.1649    0.8362    0.0000 C   0  0  0  0  0  0  0  0  0  0  0  0
   -4.0327    2.0597    0.0000 O   0  0  0  0  0  0  0  0  0  0  0  0
   -1.6650    0.8191    0.0000 C   0  0  0  0  0  0  0  0  0  0  0  0
   -0.7695    2.0225    0.0000 F   0  0  0  0  0  0  0  0  0  0  0  0
  1  2  1  0
  2  3  2  0
  3  4  1  0
  4  5  1  0
  4  6  2  0
  6  7  1  0
  7  8  2  0
  8  9  1  0
  9 10  2  0
 10 11  1  0
 12 11  1  6
 12 13  1  0
 13 14  1  0
 14 15  1  6
 15 16  1  0
 14 17  1  0
 17 18  1  1
 17 19  1  0
 19 20  1  6
  8  2  1  0
 19 12  1  0
 11  7  1  0
M  END
>  <zinc_id>  (1) 
ZINC000003798247

>  <smiles>  (1) 
Nc1nc(Cl)nc2c1ncn2[C@@H]1O[C@H](CO)[C@@H](O)[C@@H]1F

$$$$
