
     RDKit          3D

 21 23  0  0  0  0  0  0  0  0999 V2000
    6.4449   -0.8037   -1.2206 C   0  0  0  0  0  0  0  0  0  0  0  0
    5.0566   -0.9658   -0.9016 N   0  0  0  0  0  0  0  0  0  0  0  0
    4.7349   -2.2809   -0.4201 C   0  0  0  0  0  0  0  0  0  0  0  0
    4.1610   -0.4683   -1.9004 C   0  0  0  0  0  0  0  0  0  0  0  0
    2.7133   -0.5846   -1.5345 C   0  0  0  0  0  0  0  0  0  0  0  0
    2.3846    0.1723   -0.2940 C   0  0  0  0  0  0  0  0  0  0  0  0
    3.1792    0.5773    0.7370 C   0  0  0  0  0  0  0  0  0  0  0  0
    2.4071    1.2540    1.6152 N   0  0  0  0  0  0  0  0  0  0  0  0
    1.1432    1.3013    1.1939 C   0  0  0  0  0  0  0  0  0  0  0  0
   -0.0351    1.8561    1.6955 C   0  0  0  0  0  0  0  0  0  0  0  0
   -1.1929    1.7103    0.9773 C   0  0  0  0  0  0  0  0  0  0  0  0
   -1.2867    1.0450   -0.2253 C   0  0  0  0  0  0  0  0  0  0  0  0
   -2.5403    0.9172   -1.0160 C   0  0  0  0  0  0  0  0  0  0  0  0
   -3.2531   -0.4171   -0.3829 C   0  0  1  0  0  0  0  0  0  0  0  0
   -3.3789    0.2176    1.0917 C   0  0  0  0  0  0  0  0  0  0  0  0
   -4.6960   -0.2019    1.4333 O   0  0  0  0  0  0  0  0  0  0  0  0
   -5.4638    0.0460    0.2935 C   0  0  0  0  0  0  0  0  0  0  0  0
   -6.7254    0.2734    0.4055 O   0  0  0  0  0  0  0  0  0  0  0  0
   -4.6670   -0.0023   -0.8444 N   0  0  0  0  0  0  0  0  0  0  0  0
   -0.0868    0.5018   -0.6968 C   0  0  0  0  0  0  0  0  0  0  0  0
    1.1011    0.6251   -0.0062 C   0  0  0  0  0  0  0  0  0  0  0  0
  1  2  1  0
  2  3  1  0
  2  4  1  0
  4  5  1  0
  5  6  1  0
  6  7  2  0
  7  8  1  0
  8  9  1  0
  9 10  2  0
 10 11  1  0
 11 12  2  0
 12 13  1  0
 14 13  1  6
 14 15  1  0
 15 16  1  0
 16 17  1  0
 17 18  2  0
 17 19  1  0
 12 20  1  0
 20 21  2  0
 21  6  1  0
 21  9  1  0
 19 14  1  0
M  END
>  <zinc_id>  (1) 
ZINC000000015515

>  <smiles>  (1) 
CN(C)CCc1c[nH]c2ccc(C[C@H]3COC(=O)N3)cc12

$$$$
