
     RDKit          3D

 27 30  0  0  0  0  0  0  0  0999 V2000
   -4.4905   -4.2622    0.1166 Cl  0  0  0  0  0  0  0  0  0  0  0  0
   -3.5914   -3.1134    0.0627 C   0  0  0  0  0  0  0  0  0  0  0  0
   -3.0264   -2.6888   -1.1482 C   0  0  0  0  0  0  0  0  0  0  0  0
   -2.1635   -1.6026   -1.2289 C   0  0  0  0  0  0  0  0  0  0  0  0
   -1.8789   -0.9319   -0.0161 C   0  0  0  0  0  0  0  0  0  0  0  0
   -0.8078    0.2249   -0.1637 C   0  0  1  0  0  0  0  0  0  0  0  0
   -1.4491    1.3917   -0.3221 C   0  0  0  0  0  0  0  0  0  0  0  0
   -2.0974    2.5232   -0.5175 N   0  0  0  0  0  0  0  0  0  0  0  0
   -3.3631    2.8672   -0.2358 C   0  0  0  0  0  0  0  0  0  0  0  0
   -3.6692    4.1753   -0.4289 C   0  0  0  0  0  0  0  0  0  0  0  0
   -2.4276    4.7097   -0.9254 N   0  0  0  0  0  0  0  0  0  0  0  0
   -1.5520    3.7026   -0.9452 C   0  0  0  0  0  0  0  0  0  0  0  0
   -0.1269   -0.0039    1.0352 O   0  0  0  0  0  0  0  0  0  0  0  0
    0.6277   -1.0341    1.2821 C   0  0  0  0  0  0  0  0  0  0  0  0
    1.9275   -1.2096    0.5568 C   0  0  0  0  0  0  0  0  0  0  0  0
    2.3813   -2.5348    0.4337 C   0  0  0  0  0  0  0  0  0  0  0  0
    4.0586   -2.2810   -0.0656 S   0  0  0  0  0  0  0  0  0  0  0  0
    4.0687   -0.5828   -0.0987 C   0  0  0  0  0  0  0  0  0  0  0  0
    2.8475   -0.2515    0.2610 C   0  0  0  0  0  0  0  0  0  0  0  0
    2.5183    1.1437    0.2834 C   0  0  0  0  0  0  0  0  0  0  0  0
    3.4756    2.0226   -0.0748 C   0  0  0  0  0  0  0  0  0  0  0  0
    4.7722    1.7145   -0.4610 C   0  0  0  0  0  0  0  0  0  0  0  0
    5.0370    0.3421   -0.4542 C   0  0  0  0  0  0  0  0  0  0  0  0
    6.6602   -0.2328   -0.8160 Cl  0  0  0  0  0  0  0  0  0  0  0  0
   -2.4043   -1.3193    1.1075 C   0  0  0  0  0  0  0  0  0  0  0  0
   -2.0691   -0.3627    2.5532 Cl  0  0  0  0  0  0  0  0  0  0  0  0
   -3.2578   -2.4058    1.1618 C   0  0  0  0  0  0  0  0  0  0  0  0
  1  2  1  0
  2  3  2  0
  3  4  1  0
  4  5  2  0
  5  6  1  0
  6  7  1  1
  7  8  1  0
  8  9  1  0
  9 10  2  0
 10 11  1  0
 11 12  2  0
  6 13  1  0
 13 14  1  0
 14 15  1  0
 15 16  2  0
 16 17  1  0
 17 18  1  0
 18 19  2  0
 19 20  1  0
 20 21  2  0
 21 22  1  0
 22 23  2  0
 23 24  1  0
  5 25  1  0
 25 26  1  0
 25 27  2  0
 27  2  1  0
 12  8  1  0
 19 15  1  0
 23 18  1  0
M  END
>  <zinc_id>  (1) 
ZINC000000606383

>  <smiles>  (1) 
Clc1ccc([C@@H](Cn2ccnc2)OCc2csc3c(Cl)cccc23)c(Cl)c1

$$$$
