
     RDKit          3D

 13 13  0  0  0  0  0  0  0  0999 V2000
   -0.2359   -2.3598    0.2218 C   0  0  0  0  0  0  0  0  0  0  0  0
   -0.9613   -1.1446    0.2017 C   0  0  0  0  0  0  0  0  0  0  0  0
   -2.2454   -1.1481    0.8182 C   0  0  0  0  0  0  0  0  0  0  0  0
   -2.9989   -0.0214    0.7884 C   0  0  0  0  0  0  0  0  0  0  0  0
   -2.5545    1.1199    0.1797 C   0  0  0  0  0  0  0  0  0  0  0  0
   -1.3395    1.1492   -0.4117 C   0  0  0  0  0  0  0  0  0  0  0  0
   -0.8248    2.3525   -1.0757 C   0  0  0  0  0  0  0  0  0  0  0  0
   -0.5439   -0.0150   -0.3882 C   0  0  0  0  0  0  0  0  0  0  0  0
    0.6689    0.1591   -1.0199 O   0  0  0  0  0  0  0  0  0  0  0  0
    1.7667    0.7211   -0.4482 C   0  0  0  0  0  0  0  0  0  0  0  0
    2.4172   -0.1536    0.7162 C   0  0  2  0  0  0  0  0  0  0  0  0
    3.8819    0.6400    0.6930 C   0  0  0  0  0  0  0  0  0  0  0  0
    2.9695   -1.2993   -0.2754 N   0  0  0  0  0  0  0  0  0  0  0  0
  1  2  1  0
  2  3  2  0
  3  4  1  0
  4  5  2  0
  5  6  1  0
  6  7  1  0
  6  8  2  0
  8  9  1  0
  9 10  1  0
 10 11  1  0
 11 12  1  6
 11 13  1  0
  8  2  1  0
M  END
>  <zinc_id>  (1) 
ZINC000000057062

>  <smiles>  (1) 
Cc1cccc(C)c1OC[C@H](C)N

$$$$
