
     RDKit          3D

 23 25  0  0  0  0  0  0  0  0999 V2000
    2.4379   -4.2560   -0.0270 C   0  0  0  0  0  0  0  0  0  0  0  0
    3.4892   -3.1489    0.0758 C   0  0  0  0  0  0  0  0  0  0  0  0
    2.9617   -1.8865   -0.3772 N   0  0  0  0  0  0  0  0  0  0  0  0
    3.0594   -1.4790   -1.7219 C   0  0  0  0  0  0  0  0  0  0  0  0
    3.7696   -2.3698   -2.6837 C   0  0  0  0  0  0  0  0  0  0  0  0
    2.5632   -0.3846   -2.1267 O   0  0  0  0  0  0  0  0  0  0  0  0
    2.3276   -1.0374    0.5708 C   0  0  0  0  0  0  0  0  0  0  0  0
    2.9508   -0.7837    1.7869 C   0  0  0  0  0  0  0  0  0  0  0  0
    2.3883    0.0292    2.7277 C   0  0  0  0  0  0  0  0  0  0  0  0
    1.1687    0.5967    2.4308 C   0  0  0  0  0  0  0  0  0  0  0  0
    0.4930    0.3911    1.2468 C   0  0  0  0  0  0  0  0  0  0  0  0
   -0.7980    1.0268    0.9891 C   0  0  0  0  0  0  0  0  0  0  0  0
   -1.3191    1.8567    1.9550 C   0  0  0  0  0  0  0  0  0  0  0  0
   -2.5478    2.5025    1.7899 C   0  0  0  0  0  0  0  0  0  0  0  0
   -3.2126    2.2745    0.6251 N   0  0  0  0  0  0  0  0  0  0  0  0
   -2.7064    1.4625   -0.3243 C   0  0  0  0  0  0  0  0  0  0  0  0
   -3.2176    1.1095   -1.5498 C   0  0  0  0  0  0  0  0  0  0  0  0
   -4.4340    1.4883   -2.2038 C   0  0  0  0  0  0  0  0  0  0  0  0
   -5.4187    1.8169   -2.7347 N   0  0  0  0  0  0  0  0  0  0  0  0
   -2.2887    0.2562   -2.1037 C   0  0  0  0  0  0  0  0  0  0  0  0
   -1.2627    0.1234   -1.2090 N   0  0  0  0  0  0  0  0  0  0  0  0
   -1.5078    0.8484   -0.1336 N   0  0  0  0  0  0  0  0  0  0  0  0
    1.1040   -0.4370    0.3329 C   0  0  0  0  0  0  0  0  0  0  0  0
  1  2  1  0
  2  3  1  0
  3  4  1  0
  4  5  1  0
  4  6  2  0
  3  7  1  0
  7  8  2  0
  8  9  1  0
  9 10  2  0
 10 11  1  0
 11 12  1  0
 12 13  2  0
 13 14  1  0
 14 15  2  0
 15 16  1  0
 16 17  2  0
 17 18  1  0
 18 19  3  0
 17 20  1  0
 20 21  2  0
 21 22  1  0
 11 23  2  0
 23  7  1  0
 22 12  1  0
 22 16  1  0
M  END
>  <zinc_id>  (1) 
ZINC000000006300

>  <smiles>  (1) 
CCN(C(C)=O)c1cccc(-c2ccnc3c(C#N)cnn23)c1

$$$$
