
     RDKit          3D

 14 14  0  0  0  0  0  0  0  0999 V2000
   -2.4953    2.6777   -0.1012 C   0  0  0  0  0  0  0  0  0  0  0  0
   -1.6493    1.8820    0.0007 O   0  0  0  0  0  0  0  0  0  0  0  0
   -1.7959    0.5006    0.0163 C   0  0  0  0  0  0  0  0  0  0  0  0
   -3.0913    0.0024   -0.1020 C   0  0  0  0  0  0  0  0  0  0  0  0
   -3.2433   -1.3599   -0.0873 C   0  0  0  0  0  0  0  0  0  0  0  0
   -2.1858   -2.2176    0.0370 C   0  0  0  0  0  0  0  0  0  0  0  0
   -0.9354   -1.6910    0.1503 C   0  0  0  0  0  0  0  0  0  0  0  0
   -0.7100   -0.3429    0.1432 C   0  0  0  0  0  0  0  0  0  0  0  0
    0.5312    0.2143    0.2549 O   0  0  0  0  0  0  0  0  0  0  0  0
    1.7300   -0.5210    0.3906 C   0  0  0  0  0  0  0  0  0  0  0  0
    2.8149    0.7035    0.4721 C   0  0  2  0  0  0  0  0  0  0  0  0
    2.4425    1.2376   -0.8867 O   0  0  0  0  0  0  0  0  0  0  0  0
    4.0338   -0.2314   -0.1461 C   0  0  0  0  0  0  0  0  0  0  0  0
    4.5539   -0.8541    0.9844 O   0  0  0  0  0  0  0  0  0  0  0  0
  1  2  1  0
  2  3  1  0
  3  4  2  0
  4  5  1  0
  5  6  2  0
  6  7  1  0
  7  8  2  0
  8  9  1  0
  9 10  1  0
 10 11  1  0
 11 12  1  6
 11 13  1  0
 13 14  1  0
  8  3  1  0
M  END
>  <zinc_id>  (1) 
ZINC000000000353

>  <smiles>  (1) 
COc1ccccc1OC[C@H](O)CO

$$$$
