
     RDKit          3D

 25 27  0  0  0  0  0  0  0  0999 V2000
   -8.6288    0.8659    1.0596 C   0  0  0  0  0  0  0  0  0  0  0  0
   -8.0920    0.5706    0.7572 C   0  0  0  0  0  0  0  0  0  0  0  0
   -6.7891    0.0424    0.2683 C   0  0  0  0  0  0  0  0  0  0  0  0
   -6.2521   -1.1501    0.7429 C   0  0  0  0  0  0  0  0  0  0  0  0
   -5.0487   -1.5653    0.2408 C   0  0  0  0  0  0  0  0  0  0  0  0
   -4.4271   -0.7903   -0.7046 C   0  0  0  0  0  0  0  0  0  0  0  0
   -3.1380   -1.2255   -1.2491 C   0  0  0  0  0  0  0  0  0  0  0  0
   -2.0301   -0.6459   -0.3862 C   0  0  0  0  0  0  0  0  0  0  0  0
   -0.8127   -1.0711   -0.9202 O   0  0  0  0  0  0  0  0  0  0  0  0
    0.4254   -0.7253   -0.3771 C   0  0  0  0  0  0  0  0  0  0  0  0
    1.6079   -1.1638   -0.9315 C   0  0  0  0  0  0  0  0  0  0  0  0
    2.8349   -0.8250   -0.3988 C   0  0  0  0  0  0  0  0  0  0  0  0
    2.9412   -0.0259    0.7218 C   0  0  0  0  0  0  0  0  0  0  0  0
    4.2559    0.3483    1.3081 C   0  0  0  0  0  0  0  0  0  0  0  0
    4.7304    1.7015    0.6271 C   0  0  2  0  0  0  0  0  0  0  0  0
    4.7617    0.9937   -1.1661 S   0  0  0  0  0  0  0  0  0  0  0  0
    6.1227   -0.1217   -0.8945 C   0  0  0  0  0  0  0  0  0  0  0  0
    6.5537   -1.0053   -1.6497 O   0  0  0  0  0  0  0  0  0  0  0  0
    6.6176    0.2147    0.3825 N   0  0  0  0  0  0  0  0  0  0  0  0
    6.2564    1.4836    0.8270 C   0  0  0  0  0  0  0  0  0  0  0  0
    6.9037    2.4425    1.3368 O   0  0  0  0  0  0  0  0  0  0  0  0
    1.7547    0.4127    1.2760 C   0  0  0  0  0  0  0  0  0  0  0  0
    0.5290    0.0729    0.7419 C   0  0  0  0  0  0  0  0  0  0  0  0
   -4.9489    0.3711   -1.1677 N   0  0  0  0  0  0  0  0  0  0  0  0
   -6.1279    0.7953   -0.6879 C   0  0  0  0  0  0  0  0  0  0  0  0
  1  2  1  0
  2  3  1  0
  3  4  2  0
  4  5  1  0
  5  6  2  0
  6  7  1  0
  7  8  1  0
  8  9  1  0
  9 10  1  0
 10 11  2  0
 11 12  1  0
 12 13  2  0
 13 14  1  0
 15 14  1  1
 15 16  1  0
 16 17  1  0
 17 18  2  0
 17 19  1  0
 19 20  1  0
 20 21  2  0
 13 22  1  0
 22 23  2  0
  6 24  1  0
 24 25  2  0
 25  3  1  0
 23 10  1  0
 20 15  1  0
M  END
>  <zinc_id>  (1) 
ZINC000000968326

>  <smiles>  (1) 
CCc1ccc(CCOc2ccc(C[C@@H]3SC(=O)NC3=O)cc2)nc1

$$$$
