
     RDKit          3D

 14 14  0  0  0  0  0  0  0  0999 V2000
   -0.3441   -0.6313   -1.4534 O   0  0  0  0  0  0  0  0  0  0  0  0
    0.0789    0.2093   -0.3690 P   0  0  1  0  0  0  0  0  0  0  0  0
    1.6644   -0.2570    0.2468 N   0  0  0  0  0  0  0  0  0  0  0  0
    2.6622   -0.1955   -0.8051 C   0  0  0  0  0  0  0  0  0  0  0  0
    4.0248   -0.5831   -0.3338 C   0  0  0  0  0  0  0  0  0  0  0  0
    4.0924   -2.2370    0.2997 Cl  0  0  0  0  0  0  0  0  0  0  0  0
    0.1831    1.8327   -0.9043 O   0  0  0  0  0  0  0  0  0  0  0  0
   -1.0229    2.4187   -0.6217 C   0  0  0  0  0  0  0  0  0  0  0  0
   -1.2790    2.6335    0.8388 C   0  0  0  0  0  0  0  0  0  0  0  0
   -1.0928    1.4137    1.6810 C   0  0  0  0  0  0  0  0  0  0  0  0
   -1.0185    0.1752    0.9495 N   0  0  0  0  0  0  0  0  0  0  0  0
   -2.2672   -0.4577    0.7386 C   0  0  0  0  0  0  0  0  0  0  0  0
   -2.0559   -1.7574    0.0028 C   0  0  0  0  0  0  0  0  0  0  0  0
   -3.6253   -2.5640   -0.2699 Cl  0  0  0  0  0  0  0  0  0  0  0  0
  1  2  2  0
  2  3  1  1
  3  4  1  0
  4  5  1  0
  5  6  1  0
  2  7  1  0
  7  8  1  0
  8  9  1  0
  9 10  1  0
 10 11  1  0
 11 12  1  0
 12 13  1  0
 13 14  1  0
 11  2  1  0
M  END
>  <zinc_id>  (1) 
ZINC000001530659

>  <smiles>  (1) 
O=[P@@]1(NCCCl)OCCCN1CCCl

$$$$
