
     RDKit          3D

 37 41  0  0  0  0  0  0  0  0999 V2000
   -1.5025    0.0426    2.7327 C   0  0  0  0  0  0  0  0  0  0  0  0
   -1.5956   -1.4661    2.1632 C   0  0  2  0  0  0  0  0  0  0  0  0
   -0.0111   -1.7713    1.9642 C   0  0  0  0  0  0  0  0  0  0  0  0
    0.2901   -0.3592    1.2846 C   0  0  1  0  0  0  0  0  0  0  0  0
    1.6531   -0.7173    0.3841 C   0  0  2  0  0  0  0  0  0  0  0  0
    2.7157   -0.8278    1.5880 C   0  0  0  0  0  0  0  0  0  0  0  0
    3.9626   -1.1040    0.4930 C   0  0  2  0  0  0  0  0  0  0  0  0
    4.9683   -1.1842    1.5887 F   0  0  0  0  0  0  0  0  0  0  0  0
    4.1341    0.4620    0.1741 C   0  0  0  0  0  0  0  0  0  0  0  0
    5.1595    1.0863    0.6353 C   0  0  0  0  0  0  0  0  0  0  0  0
    5.3716    2.5057    0.3867 C   0  0  0  0  0  0  0  0  0  0  0  0
    6.3843    3.0438    0.8627 O   0  0  0  0  0  0  0  0  0  0  0  0
    4.3548    3.1630   -0.4105 C   0  0  0  0  0  0  0  0  0  0  0  0
    3.3535    2.4616   -0.8409 C   0  0  0  0  0  0  0  0  0  0  0  0
    3.0485    1.0567   -0.6630 C   0  0  1  0  0  0  0  0  0  0  0  0
    3.1527    0.4202   -2.0515 C   0  0  0  0  0  0  0  0  0  0  0  0
    1.9229    0.8437    0.1023 C   0  0  2  0  0  0  0  0  0  0  0  0
    2.0516    1.5157    1.3030 F   0  0  0  0  0  0  0  0  0  0  0  0
    0.5132    1.4992   -0.3306 C   0  0  1  0  0  0  0  0  0  0  0  0
    1.0001    1.9831   -1.6845 O   0  0  0  0  0  0  0  0  0  0  0  0
   -0.2723    0.2007   -0.9507 C   0  0  0  0  0  0  0  0  0  0  0  0
   -0.6630   -0.7704    0.0212 C   0  0  1  0  0  0  0  0  0  0  0  0
   -0.0999   -2.0363   -0.6153 C   0  0  0  0  0  0  0  0  0  0  0  0
   -1.9155   -1.0724    0.6064 C   0  0  2  0  0  0  0  0  0  0  0  0
   -2.9033   -0.0939    0.6782 O   0  0  0  0  0  0  0  0  0  0  0  0
   -3.4963    0.4690   -0.4013 C   0  0  0  0  0  0  0  0  0  0  0  0
   -3.2005    0.1352   -1.5525 O   0  0  0  0  0  0  0  0  0  0  0  0
   -4.5182    1.4981   -0.3694 C   0  0  0  0  0  0  0  0  0  0  0  0
   -5.1626    2.1143   -1.3998 C   0  0  0  0  0  0  0  0  0  0  0  0
   -6.0695    3.0433   -0.8737 C   0  0  0  0  0  0  0  0  0  0  0  0
   -5.8769    2.8920    0.4843 C   0  0  0  0  0  0  0  0  0  0  0  0
   -4.9727    1.9902    0.7371 O   0  0  0  0  0  0  0  0  0  0  0  0
   -2.4199   -2.4409    0.3026 C   0  0  0  0  0  0  0  0  0  0  0  0
   -3.5943   -2.7376    0.0213 O   0  0  0  0  0  0  0  0  0  0  0  0
   -1.6137   -3.9703    0.2460 S   0  0  0  0  0  0  0  0  0  0  0  0
   -2.5404   -5.4186   -0.1568 C   0  0  0  0  0  0  0  0  0  0  0  0
   -1.6083   -6.4560   -0.1157 F   0  0  0  0  0  0  0  0  0  0  0  0
  2  1  1  1
  2  3  1  0
  4  3  1  1
  4  5  1  0
  5  6  1  1
  6  7  1  0
  7  8  1  1
  7  9  1  0
  9 10  2  0
 10 11  1  0
 11 12  2  0
 11 13  1  0
 13 14  2  0
 14 15  1  0
 15 16  1  6
 15 17  1  0
 17 18  1  1
 17 19  1  0
 19 20  1  6
 19 21  1  0
 21 22  1  0
 22 23  1  6
 22 24  1  0
 24 25  1  1
 25 26  1  0
 26 27  2  0
 26 28  1  0
 28 29  2  0
 29 30  1  0
 30 31  2  0
 31 32  1  0
 24 33  1  0
 33 34  2  0
 33 35  1  0
 35 36  1  0
 36 37  1  0
 24  2  1  0
 32 28  1  0
 22  4  1  0
 17  5  1  0
 15  9  1  0
M  END
>  <zinc_id>  (1) 
ZINC000003992105

>  <smiles>  (1) 
C[C@@H]1C[C@H]2[C@@H]3C[C@H](F)C4=CC(=O)C=C[C@]4(C)[C@@]3(F)[C@@H](O)C[C@]2(C)[C@@]1(OC(=O)c1ccco1)C(=O)SCF

$$$$
