
     RDKit          3D

  4  3  0  0  0  0  0  0  0  0999 V2000
   -0.0580    1.2719    0.1472 O   0  0  0  0  0  0  0  0  0  0  0  0
    0.0028    0.0395    0.0043 C   0  0  0  0  0  0  0  0  0  0  0  0
    1.2162   -0.6106   -0.1339 O   0  0  0  0  0  0  0  0  0  0  0  0
   -1.1610   -0.7008   -0.0176 O   0  0  0  0  0  0  0  0  0  0  0  0
  1  2  2  0
  2  3  1  0
  2  4  1  0
M  END
>  <zinc_id>  (1) 
ZINC000006827693

>  <smiles>  (1) 
O=C(O)O

$$$$
