
     RDKit          3D

 12 12  0  0  0  0  0  0  0  0999 V2000
    4.1820    0.2731   -1.1415 C   0  0  0  0  0  0  0  0  0  0  0  0
    2.9834    0.7946   -0.9282 C   0  0  0  0  0  0  0  0  0  0  0  0
    2.2788    0.7149    0.3713 C   0  0  0  0  0  0  0  0  0  0  0  0
    0.9872    0.0233    0.2993 C   0  0  0  0  0  0  0  0  0  0  0  0
    0.8264   -1.3358    0.4823 C   0  0  0  0  0  0  0  0  0  0  0  0
   -0.4325   -1.9208    0.3987 C   0  0  0  0  0  0  0  0  0  0  0  0
   -1.5505   -1.1578    0.1310 C   0  0  0  0  0  0  0  0  0  0  0  0
   -2.8285   -1.7169    0.0409 O   0  0  0  0  0  0  0  0  0  0  0  0
   -1.4060    0.2106   -0.0556 C   0  0  0  0  0  0  0  0  0  0  0  0
   -2.5297    0.9946   -0.3272 O   0  0  0  0  0  0  0  0  0  0  0  0
   -2.3565    2.3683   -0.5108 C   0  0  0  0  0  0  0  0  0  0  0  0
   -0.1541    0.7519    0.0337 C   0  0  0  0  0  0  0  0  0  0  0  0
  1  2  2  0
  2  3  1  0
  3  4  1  0
  4  5  2  0
  5  6  1  0
  6  7  2  0
  7  8  1  0
  7  9  1  0
  9 10  1  0
 10 11  1  0
  9 12  2  0
 12  4  1  0
M  END
>  <zinc_id>  (1) 
ZINC000000001411

>  <smiles>  (1) 
C=CCc1ccc(O)c(OC)c1

$$$$
