
     RDKit          3D

 11 11  0  0  0  0  0  0  0  0999 V2000
    3.2740    0.6834    1.2871 C   0  0  0  0  0  0  0  0  0  0  0  0
    2.6895    0.8777   -0.0994 C   0  0  0  0  0  0  0  0  0  0  0  0
    1.4598    0.0471   -0.2884 C   0  0  0  0  0  0  0  0  0  0  0  0
    0.2700    0.6442    0.0588 C   0  0  0  0  0  0  0  0  0  0  0  0
   -0.9040   -0.0633   -0.0892 C   0  0  0  0  0  0  0  0  0  0  0  0
   -2.1522    0.5626    0.2748 C   0  0  0  0  0  0  0  0  0  0  0  0
   -2.7659    1.4848   -0.5797 N   0  0  0  0  0  0  0  0  0  0  0  0
   -2.8425    0.1911    1.6828 S   0  0  0  0  0  0  0  0  0  0  0  0
   -0.8718   -1.3492   -0.5791 C   0  0  0  0  0  0  0  0  0  0  0  0
    0.3501   -1.8824   -0.9054 C   0  0  0  0  0  0  0  0  0  0  0  0
    1.4930   -1.1960   -0.7622 N   0  0  0  0  0  0  0  0  0  0  0  0
  1  2  1  0
  2  3  1  0
  3  4  2  0
  4  5  1  0
  5  6  1  0
  6  7  1  0
  6  8  2  0
  5  9  2  0
  9 10  1  0
 10 11  2  0
 11  3  1  0
M  END
>  <zinc_id>  (1) 
ZINC000003872520

>  <smiles>  (1) 
CCc1cc(C(N)=S)ccn1

$$$$
