
     RDKit          3D

 29 33  0  0  0  0  0  0  0  0999 V2000
   -2.9748    3.6786   -1.2411 C   0  0  0  0  0  0  0  0  0  0  0  0
   -2.2582    3.6456   -0.0425 C   0  0  0  0  0  0  0  0  0  0  0  0
   -2.4339    4.5744    0.7467 O   0  0  0  0  0  0  0  0  0  0  0  0
   -1.1248    2.3312    0.3682 S   0  0  0  0  0  0  0  0  0  0  0  0
   -1.2071    1.1836   -1.1234 C   0  0  2  0  0  0  0  0  0  0  0  0
   -2.6493    0.7261   -0.9562 C   0  0  0  0  0  0  0  0  0  0  0  0
   -2.9445   -0.6209   -0.6767 C   0  0  0  0  0  0  0  0  0  0  0  0
   -3.9808   -1.3453   -1.1428 C   0  0  0  0  0  0  0  0  0  0  0  0
   -4.0341   -2.7288   -0.6769 C   0  0  0  0  0  0  0  0  0  0  0  0
   -4.1707   -3.7321   -1.4240 O   0  0  0  0  0  0  0  0  0  0  0  0
   -3.9108   -2.8755    0.8156 C   0  0  0  0  0  0  0  0  0  0  0  0
   -2.9066   -1.9057    1.3874 C   0  0  0  0  0  0  0  0  0  0  0  0
   -2.0693   -1.3972    0.2245 C   0  0  1  0  0  0  0  0  0  0  0  0
   -1.4720   -2.4976   -0.5624 C   0  0  0  0  0  0  0  0  0  0  0  0
   -0.9655   -0.4026    0.8126 C   0  0  1  0  0  0  0  0  0  0  0  0
    0.1070   -1.5537    1.1759 C   0  0  0  0  0  0  0  0  0  0  0  0
    1.4701   -1.1241    1.0943 C   0  0  0  0  0  0  0  0  0  0  0  0
    1.9751   -0.4059   -0.0419 C   0  0  1  0  0  0  0  0  0  0  0  0
    1.9960   -1.0382   -1.3930 C   0  0  0  0  0  0  0  0  0  0  0  0
    0.9224    0.8373   -0.0668 C   0  0  1  0  0  0  0  0  0  0  0  0
    1.5507    1.3220   -1.4647 C   0  0  0  0  0  0  0  0  0  0  0  0
    2.9382    1.5927   -0.8448 C   0  0  0  0  0  0  0  0  0  0  0  0
    3.2000    0.4112    0.0620 C   0  0  1  0  0  0  0  0  0  0  0  0
    3.7143    0.7251    1.3885 C   0  0  0  0  0  0  0  0  0  0  0  0
    5.2291    0.4745    1.3722 C   0  0  0  0  0  0  0  0  0  0  0  0
    5.4813    0.1827   -0.0672 C   0  0  0  0  0  0  0  0  0  0  0  0
    6.5446    0.3356   -0.7342 O   0  0  0  0  0  0  0  0  0  0  0  0
    4.2756   -0.3096   -0.5553 O   0  0  0  0  0  0  0  0  0  0  0  0
   -0.3020   -0.0836   -0.7071 C   0  0  2  0  0  0  0  0  0  0  0  0
  1  2  1  0
  2  3  2  0
  2  4  1  0
  5  4  1  1
  5  6  1  0
  6  7  1  0
  7  8  2  0
  8  9  1  0
  9 10  2  0
  9 11  1  0
 11 12  1  0
 12 13  1  0
 13 14  1  6
 13 15  1  0
 15 16  1  1
 16 17  1  0
 17 18  1  0
 18 19  1  6
 18 20  1  0
 20 21  1  6
 21 22  1  0
 23 22  1  6
 23 24  1  0
 24 25  1  0
 25 26  1  0
 26 27  2  0
 26 28  1  0
 20 29  1  0
 29  5  1  6
 13  7  1  0
 29 15  1  0
 23 18  1  0
 28 23  1  0
M  END
>  <zinc_id>  (1) 
ZINC000003861599

>  <smiles>  (1) 
CC(=O)S[C@@H]1CC2=CC(=O)CC[C@]2(C)[C@H]2CC[C@@]3(C)[C@@H](CC[C@@]34CCC(=O)O4)[C@@H]21

$$$$
