
     RDKit          3D

 13 13  0  0  0  0  0  0  0  0999 V2000
    2.6560   -1.8718    0.4629 C   0  0  0  0  0  0  0  0  0  0  0  0
    2.3449   -0.7114   -0.5517 C   0  0  0  0  0  0  0  0  0  0  0  0
    3.5893    0.2617   -0.4303 C   0  0  0  0  0  0  0  0  0  0  0  0
    1.1588    0.0956    0.0701 C   0  0  0  0  0  0  0  0  0  0  0  0
    1.3097    1.0185    0.9978 C   0  0  0  0  0  0  0  0  0  0  0  0
    0.2051    1.6793    1.5083 C   0  0  0  0  0  0  0  0  0  0  0  0
   -1.0048    1.3403    1.0273 C   0  0  0  0  0  0  0  0  0  0  0  0
   -1.1902    0.3735    0.0552 C   0  0  0  0  0  0  0  0  0  0  0  0
   -2.4958   -0.0134   -0.4676 C   0  0  0  0  0  0  0  0  0  0  0  0
   -3.6626    0.7393    0.0250 C   0  0  0  0  0  0  0  0  0  0  0  0
   -2.6511   -1.4281   -0.8759 C   0  0  0  0  0  0  0  0  0  0  0  0
   -0.0564   -0.2531   -0.4255 C   0  0  0  0  0  0  0  0  0  0  0  0
   -0.2029   -1.2302   -1.3957 O   0  0  0  0  0  0  0  0  0  0  0  0
  1  2  1  0
  2  3  1  0
  2  4  1  0
  4  5  2  0
  5  6  1  0
  6  7  2  0
  7  8  1  0
  8  9  1  0
  9 10  1  0
  9 11  1  0
  8 12  2  0
 12 13  1  0
 12  4  1  0
M  END
>  <zinc_id>  (1) 
ZINC000000968303

>  <smiles>  (1) 
CC(C)c1cccc(C(C)C)c1O

$$$$
