
     RDKit          3D

 26 28  0  0  0  0  0  0  0  0999 V2000
    6.1089   -0.8897   -0.6394 C   0  0  0  0  0  0  0  0  0  0  0  0
    5.6133   -0.5009   -0.6279 C   0  0  0  0  0  0  0  0  0  0  0  0
    4.2175   -0.4444   -0.2107 C   0  0  0  0  0  0  0  0  0  0  0  0
    3.4910    0.6396   -0.3839 C   0  0  0  0  0  0  0  0  0  0  0  0
    4.0407    1.8632   -1.0123 C   0  0  0  0  0  0  0  0  0  0  0  0
    5.2394    1.8254   -1.3694 O   0  0  0  0  0  0  0  0  0  0  0  0
    3.3243    3.0194   -1.2249 O   0  0  0  0  0  0  0  0  0  0  0  0
    2.1269    0.7714   -0.0014 N   0  0  0  0  0  0  0  0  0  0  0  0
    0.8312    1.1708   -0.3070 C   0  0  0  0  0  0  0  0  0  0  0  0
    0.1761    1.6224   -1.2195 O   0  0  0  0  0  0  0  0  0  0  0  0
    0.3231    0.8120    1.1407 C   0  0  1  0  0  0  0  0  0  0  0  0
   -0.4800   -0.4946    0.8157 N   0  0  0  0  0  0  0  0  0  0  0  0
   -1.8001   -0.2995    0.3920 C   0  0  0  0  0  0  0  0  0  0  0  0
   -2.1570    0.9371    0.3280 O   0  0  0  0  0  0  0  0  0  0  0  0
   -2.7907   -1.3041    0.0269 C   0  0  0  0  0  0  0  0  0  0  0  0
   -2.5117   -2.5630    0.0743 N   0  0  0  0  0  0  0  0  0  0  0  0
   -1.2941   -3.0347    0.4625 O   0  0  0  0  0  0  0  0  0  0  0  0
   -4.1335   -0.8534   -0.4012 C   0  0  0  0  0  0  0  0  0  0  0  0
   -5.0968   -1.7735   -0.7465 C   0  0  0  0  0  0  0  0  0  0  0  0
   -6.4269   -0.7416   -1.1533 S   0  0  0  0  0  0  0  0  0  0  0  0
   -5.6588    0.7508   -0.8549 C   0  0  0  0  0  0  0  0  0  0  0  0
   -6.1419    2.0840   -0.9736 N   0  0  0  0  0  0  0  0  0  0  0  0
   -4.4662    0.3974   -0.4727 N   0  0  0  0  0  0  0  0  0  0  0  0
    1.8312    0.2466    1.4108 C   0  0  1  0  0  0  0  0  0  0  0  0
    1.9526   -1.5501    0.9007 S   0  0  0  0  0  0  0  0  0  0  0  0
    3.6814   -1.6907    0.3931 C   0  0  0  0  0  0  0  0  0  0  0  0
  1  2  2  0
  2  3  1  0
  3  4  2  0
  4  5  1  0
  5  6  2  0
  5  7  1  0
  4  8  1  0
  8  9  1  0
  9 10  2  0
  9 11  1  0
 11 12  1  6
 12 13  1  0
 13 14  2  0
 13 15  1  0
 15 16  2  0
 16 17  1  0
 15 18  1  0
 18 19  2  0
 19 20  1  0
 20 21  1  0
 21 22  1  0
 21 23  2  0
 11 24  1  0
 24 25  1  6
 25 26  1  0
 26  3  1  0
 24  8  1  0
 23 18  1  0
M  END
>  <zinc_id>  (1) 
ZINC000003927198

>  <smiles>  (1) 
C=CC1=C(C(=O)O)N2C(=O)[C@@H](NC(=O)/C(=N\O)c3csc(N)n3)[C@H]2SC1

$$$$
