
     RDKit          3D

 18 18  0  0  0  0  0  0  0  0999 V2000
   -3.9079   -2.5308   -1.2560 C   0  0  0  0  0  0  0  0  0  0  0  0
   -3.4663   -2.1143   -0.8002 O   0  0  0  0  0  0  0  0  0  0  0  0
   -2.7579   -1.3543    0.1362 C   0  0  0  0  0  0  0  0  0  0  0  0
   -3.0310   -1.0123    1.2996 C   0  0  0  0  0  0  0  0  0  0  0  0
   -2.2334   -0.2105    2.1638 C   0  0  0  0  0  0  0  0  0  0  0  0
   -1.0564    0.2468    1.7130 C   0  0  0  0  0  0  0  0  0  0  0  0
   -0.1828    1.0131    2.3165 O   0  0  0  0  0  0  0  0  0  0  0  0
   -0.2080    1.5989    3.6051 C   0  0  0  0  0  0  0  0  0  0  0  0
   -0.7334   -0.1442    0.3769 C   0  0  0  0  0  0  0  0  0  0  0  0
    0.8302    0.0968    0.0171 C   0  0  1  0  0  0  0  0  0  0  0  0
    0.7351   -0.9794   -1.1388 O   0  0  0  0  0  0  0  0  0  0  0  0
    0.5804    1.3201   -1.0701 C   0  0  0  0  0  0  0  0  0  0  0  0
    1.5800    1.1262   -2.1240 N   0  0  0  0  0  0  0  0  0  0  0  0
    2.9716    1.0726   -1.6915 C   0  0  0  0  0  0  0  0  0  0  0  0
    3.2970    1.1877   -0.5828 O   0  0  0  0  0  0  0  0  0  0  0  0
    3.8466    0.8380   -2.9324 C   0  0  0  0  0  0  0  0  0  0  0  0
    5.1945    0.7471   -2.4316 N   0  0  0  0  0  0  0  0  0  0  0  0
   -1.4585   -0.9016   -0.4797 C   0  0  0  0  0  0  0  0  0  0  0  0
  1  2  1  0
  2  3  1  0
  3  4  2  0
  4  5  1  0
  5  6  2  0
  6  7  1  0
  7  8  1  0
  6  9  1  0
  9 10  1  0
 10 11  1  6
 10 12  1  0
 12 13  1  0
 13 14  1  0
 14 15  2  0
 14 16  1  0
 16 17  1  0
  9 18  2  0
 18  3  1  0
M  END
>  <zinc_id>  (1) 
ZINC000000403079

>  <smiles>  (1) 
COc1ccc(OC)c([C@@H](O)CNC(=O)CN)c1

$$$$
