
     RDKit          3D

 19 20  0  0  0  0  0  0  0  0999 V2000
    3.3277   -1.4266    1.7090 C   0  0  0  0  0  0  0  0  0  0  0  0
    3.5451   -0.0509    1.2828 N   0  0  0  0  0  0  0  0  0  0  0  0
    4.6163   -0.0789    0.3126 C   0  0  0  0  0  0  0  0  0  0  0  0
    2.3592    0.4870    0.6398 C   0  0  0  0  0  0  0  0  0  0  0  0
    2.0986   -0.1989   -0.6897 C   0  0  0  0  0  0  0  0  0  0  0  0
    0.9804    0.2906   -1.3210 O   0  0  0  0  0  0  0  0  0  0  0  0
   -0.1795    0.1741   -0.6582 C   0  0  0  0  0  0  0  0  0  0  0  0
   -0.6643   -1.1303   -0.2852 C   0  0  0  0  0  0  0  0  0  0  0  0
   -0.6876   -2.2354   -1.1347 C   0  0  0  0  0  0  0  0  0  0  0  0
   -1.1663   -3.4408   -0.6830 C   0  0  0  0  0  0  0  0  0  0  0  0
   -1.6395   -3.6167    0.6107 C   0  0  0  0  0  0  0  0  0  0  0  0
   -1.6243   -2.5342    1.4662 C   0  0  0  0  0  0  0  0  0  0  0  0
   -1.1414   -1.3340    0.9961 C   0  0  0  0  0  0  0  0  0  0  0  0
   -0.9497    1.3460   -0.3168 C   0  0  0  0  0  0  0  0  0  0  0  0
   -2.3201    1.4680   -0.4965 C   0  0  0  0  0  0  0  0  0  0  0  0
   -3.0006    2.6118   -0.1494 C   0  0  0  0  0  0  0  0  0  0  0  0
   -2.3037    3.6614    0.3898 C   0  0  0  0  0  0  0  0  0  0  0  0
   -0.9546    3.5781    0.5818 C   0  0  0  0  0  0  0  0  0  0  0  0
   -0.2957    2.4296    0.2292 C   0  0  0  0  0  0  0  0  0  0  0  0
  1  2  1  0
  2  3  1  0
  2  4  1  0
  4  5  1  0
  5  6  1  0
  6  7  1  0
  7  8  1  0
  8  9  2  0
  9 10  1  0
 10 11  2  0
 11 12  1  0
 12 13  2  0
  7 14  1  0
 14 15  2  0
 15 16  1  0
 16 17  2  0
 17 18  1  0
 18 19  2  0
 13  8  1  0
 19 14  1  0
M  END
>  <zinc_id>  (1) 
ZINC000000020244

>  <smiles>  (1) 
CN(C)CCOC(c1ccccc1)c1ccccc1

$$$$
