
     RDKit          3D

 21 22  0  0  0  0  0  0  0  0999 V2000
    4.9471   -2.2955   -0.1470 C   0  0  0  0  0  0  0  0  0  0  0  0
    4.4558   -1.9110   -0.0080 C   0  0  0  0  0  0  0  0  0  0  0  0
    3.7919   -0.6674   -0.5905 C   0  0  0  0  0  0  0  0  0  0  0  0
    2.6271   -0.2200    0.2340 C   0  0  0  0  0  0  0  0  0  0  0  0
    2.0694    0.9770   -0.4168 N   0  0  0  0  0  0  0  0  0  0  0  0
    3.0762    2.0113   -0.2534 C   0  0  0  0  0  0  0  0  0  0  0  0
    2.6053    3.2264    0.4567 C   0  0  0  0  0  0  0  0  0  0  0  0
    1.2968    3.7709   -0.0324 C   0  0  0  0  0  0  0  0  0  0  0  0
    0.3984    2.6209   -0.4806 C   0  0  0  0  0  0  0  0  0  0  0  0
    0.9442    1.4430    0.5684 C   0  0  1  0  0  0  0  0  0  0  0  0
   -0.1298    0.3483    0.1194 C   0  0  0  0  0  0  0  0  0  0  0  0
    0.0799   -0.4721   -0.7430 O   0  0  0  0  0  0  0  0  0  0  0  0
   -1.3707    0.4358    0.8441 N   0  0  0  0  0  0  0  0  0  0  0  0
   -2.3894   -0.4906    0.5207 C   0  0  0  0  0  0  0  0  0  0  0  0
   -2.4014   -1.6837    1.2144 C   0  0  0  0  0  0  0  0  0  0  0  0
   -1.4296   -2.0561    2.2614 C   0  0  0  0  0  0  0  0  0  0  0  0
   -3.3979   -2.5873    0.8990 C   0  0  0  0  0  0  0  0  0  0  0  0
   -4.3206   -2.3045   -0.0531 C   0  0  0  0  0  0  0  0  0  0  0  0
   -4.2811   -1.1079   -0.7247 C   0  0  0  0  0  0  0  0  0  0  0  0
   -3.3130   -0.1782   -0.4492 C   0  0  0  0  0  0  0  0  0  0  0  0
   -3.2586    1.1405   -1.1812 C   0  0  0  0  0  0  0  0  0  0  0  0
  1  2  1  0
  2  3  1  0
  3  4  1  0
  4  5  1  0
  5  6  1  0
  6  7  1  0
  7  8  1  0
  8  9  1  0
  9 10  1  0
 10 11  1  6
 11 12  2  0
 11 13  1  0
 13 14  1  0
 14 15  2  0
 15 16  1  0
 15 17  1  0
 17 18  2  0
 18 19  1  0
 19 20  2  0
 20 21  1  0
 10  5  1  0
 20 14  1  0
M  END
>  <zinc_id>  (1) 
ZINC000001530812

>  <smiles>  (1) 
CCCCN1CCCC[C@H]1C(=O)Nc1c(C)cccc1C

$$$$
