
     RDKit          3D

 27 30  0  0  0  0  0  0  0  0999 V2000
   -5.7507    1.5463   -0.2302 C   0  0  0  0  0  0  0  0  0  0  0  0
   -5.4014    1.6437   -0.0888 N   0  0  0  0  0  0  0  0  0  0  0  0
   -5.1446    2.7614    0.8333 C   0  0  0  0  0  0  0  0  0  0  0  0
   -3.7040    2.7301    1.1714 C   0  0  0  0  0  0  0  0  0  0  0  0
   -3.1777    1.5739    0.3703 C   0  0  0  0  0  0  0  0  0  0  0  0
   -4.4357    0.5526    0.5613 C   0  0  2  0  0  0  0  0  0  0  0  0
   -4.2088   -0.2138   -0.8522 C   0  0  0  0  0  0  0  0  0  0  0  0
   -3.3323   -1.3834   -0.6134 C   0  0  0  0  0  0  0  0  0  0  0  0
   -3.8260   -2.6916   -0.4566 C   0  0  0  0  0  0  0  0  0  0  0  0
   -2.7913   -3.4970   -0.2415 N   0  0  0  0  0  0  0  0  0  0  0  0
   -1.6537   -2.7985   -0.2480 C   0  0  0  0  0  0  0  0  0  0  0  0
   -0.3120   -3.1932   -0.0756 C   0  0  0  0  0  0  0  0  0  0  0  0
    0.6460   -2.2090   -0.1493 C   0  0  0  0  0  0  0  0  0  0  0  0
    0.3318   -0.8833   -0.3815 C   0  0  0  0  0  0  0  0  0  0  0  0
    1.4852    0.0760   -0.4333 C   0  0  0  0  0  0  0  0  0  0  0  0
    1.7348    0.6157    0.9631 C   0  0  0  0  0  0  0  0  0  0  0  0
    3.1095    1.7372    0.8176 S   0  0  0  0  0  0  0  0  0  0  0  0
    3.3733    2.3816    2.1290 O   0  0  0  0  0  0  0  0  0  0  0  0
    2.7395    2.7481   -0.2395 O   0  0  0  0  0  0  0  0  0  0  0  0
    4.4645    0.8161    0.2187 C   0  0  0  0  0  0  0  0  0  0  0  0
    5.3351    0.1884    1.1121 C   0  0  0  0  0  0  0  0  0  0  0  0
    6.4087   -0.5403    0.6148 C   0  0  0  0  0  0  0  0  0  0  0  0
    6.6125   -0.6425   -0.7474 C   0  0  0  0  0  0  0  0  0  0  0  0
    5.7530   -0.0223   -1.6475 C   0  0  0  0  0  0  0  0  0  0  0  0
    4.6896    0.6988   -1.1304 C   0  0  0  0  0  0  0  0  0  0  0  0
   -0.9699   -0.5124   -0.5464 C   0  0  0  0  0  0  0  0  0  0  0  0
   -1.9754   -1.4826   -0.4784 C   0  0  0  0  0  0  0  0  0  0  0  0
  1  2  1  0
  2  3  1  0
  3  4  1  0
  4  5  1  0
  5  6  1  0
  6  7  1  6
  7  8  1  0
  8  9  2  0
  9 10  1  0
 10 11  1  0
 11 12  2  0
 12 13  1  0
 13 14  2  0
 14 15  1  0
 15 16  1  0
 16 17  1  0
 17 18  2  0
 17 19  2  0
 17 20  1  0
 20 21  2  0
 21 22  1  0
 22 23  2  0
 23 24  1  0
 24 25  2  0
 14 26  1  0
 26 27  2  0
  6  2  1  0
 27  8  1  0
 27 11  1  0
 25 20  1  0
M  END
>  <zinc_id>  (1) 
ZINC000003823475

>  <smiles>  (1) 
CN1CCC[C@@H]1Cc1c[nH]c2ccc(CCS(=O)(=O)c3ccccc3)cc12

$$$$
