
     RDKit          3D

 21 22  0  0  0  0  0  0  0  0999 V2000
   -3.1388    1.3435   -2.0766 C   0  0  0  0  0  0  0  0  0  0  0  0
   -3.0708    0.9842   -0.6275 C   0  0  0  0  0  0  0  0  0  0  0  0
   -3.3508    1.8238    0.2566 O   0  0  0  0  0  0  0  0  0  0  0  0
   -2.6958   -0.2906   -0.2026 O   0  0  0  0  0  0  0  0  0  0  0  0
   -2.6519   -0.5627    1.1608 C   0  0  0  0  0  0  0  0  0  0  0  0
   -3.8206   -0.7795    1.8807 C   0  0  0  0  0  0  0  0  0  0  0  0
   -3.7946   -1.0480    3.2238 C   0  0  0  0  0  0  0  0  0  0  0  0
   -2.5737   -1.1034    3.8741 C   0  0  0  0  0  0  0  0  0  0  0  0
   -1.4138   -0.8914    3.1736 C   0  0  0  0  0  0  0  0  0  0  0  0
   -1.4570   -0.6200    1.8088 C   0  0  0  0  0  0  0  0  0  0  0  0
   -0.1736   -0.4280    1.1352 C   0  0  0  0  0  0  0  0  0  0  0  0
    0.8760   -0.4931    1.8228 O   0  0  0  0  0  0  0  0  0  0  0  0
   -0.1638   -0.1790   -0.2493 N   0  0  0  0  0  0  0  0  0  0  0  0
    1.1117    0.0086   -0.9003 C   0  0  0  0  0  0  0  0  0  0  0  0
    1.3501    0.2525   -2.1854 N   0  0  0  0  0  0  0  0  0  0  0  0
    2.5658    0.3920   -2.5867 C   0  0  0  0  0  0  0  0  0  0  0  0
    3.5782    0.2854   -1.6796 C   0  0  0  0  0  0  0  0  0  0  0  0
    4.9610    0.4108   -1.9503 N   0  0  0  0  0  0  0  0  0  0  0  0
    5.3182    0.6402   -3.1183 O   0  0  0  0  0  0  0  0  0  0  0  0
    5.8447    0.2753   -0.9224 O   0  0  0  0  0  0  0  0  0  0  0  0
    2.6996   -0.0205   -0.2467 S   0  0  0  0  0  0  0  0  0  0  0  0
  1  2  1  0
  2  3  2  0
  2  4  1  0
  4  5  1  0
  5  6  2  0
  6  7  1  0
  7  8  2  0
  8  9  1  0
  9 10  2  0
 10 11  1  0
 11 12  2  0
 11 13  1  0
 13 14  1  0
 14 15  2  0
 15 16  1  0
 16 17  2  0
 17 18  1  0
 18 19  2  0
 18 20  1  0
 17 21  1  0
 10  5  1  0
 21 14  1  0
M  CHG  2  18   1  20  -1
M  END
>  <zinc_id>  (1) 
ZINC000003956788

>  <smiles>  (1) 
CC(=O)Oc1ccccc1C(=O)Nc1ncc([N+](=O)[O-])s1

$$$$
