
     RDKit          3D

 22 26  0  0  0  0  0  0  0  0999 V2000
    0.4966   -2.2558   -0.4429 O   0  0  0  0  0  0  0  0  0  0  0  0
   -0.0424   -1.1808   -0.3634 C   0  0  0  0  0  0  0  0  0  0  0  0
   -1.5264   -1.0477   -0.3696 C   0  0  0  0  0  0  0  0  0  0  0  0
   -2.2899   -2.2110   -0.4360 C   0  0  0  0  0  0  0  0  0  0  0  0
   -3.6532   -2.0744   -0.4106 C   0  0  0  0  0  0  0  0  0  0  0  0
   -4.2300   -0.8011   -0.3211 C   0  0  0  0  0  0  0  0  0  0  0  0
   -3.4857    0.3300   -0.2575 C   0  0  0  0  0  0  0  0  0  0  0  0
   -2.0717    0.1732   -0.2845 C   0  0  0  0  0  0  0  0  0  0  0  0
   -1.3187    1.5409   -0.2578 C   0  0  1  0  0  0  0  0  0  0  0  0
   -1.9499    2.1575    1.1295 C   0  0  0  0  0  0  0  0  0  0  0  0
   -3.3816    2.2584    1.1143 C   0  0  0  0  0  0  0  0  0  0  0  0
   -3.9342    1.7249   -0.1840 C   0  0  0  0  0  0  0  0  0  0  0  0
    0.0774    1.1352    0.4384 C   0  0  0  0  0  0  0  0  0  0  0  0
    0.6587    0.0519   -0.2575 N   0  0  0  0  0  0  0  0  0  0  0  0
    2.0332    0.1090   -0.9322 C   0  0  2  0  0  0  0  0  0  0  0  0
    2.6058   -1.2768   -0.2197 C   0  0  0  0  0  0  0  0  0  0  0  0
    3.9621   -1.0113    0.1285 N   0  0  0  0  0  0  0  0  0  0  0  0
    4.5964   -0.0827   -0.7874 C   0  0  0  0  0  0  0  0  0  0  0  0
    4.1182    1.3067   -0.4156 C   0  0  0  0  0  0  0  0  0  0  0  0
    2.7138    1.1468    0.1637 C   0  0  0  0  0  0  0  0  0  0  0  0
    2.7003    0.4590    1.4768 C   0  0  0  0  0  0  0  0  0  0  0  0
    3.9213   -0.4517    1.4887 C   0  0  0  0  0  0  0  0  0  0  0  0
  1  2  2  0
  2  3  1  0
  3  4  2  0
  4  5  1  0
  5  6  2  0
  6  7  1  0
  7  8  2  0
  8  9  1  0
  9 10  1  1
 10 11  1  0
 11 12  1  0
  9 13  1  0
 13 14  1  0
 15 14  1  1
 15 16  1  0
 16 17  1  0
 17 18  1  0
 18 19  1  0
 19 20  1  0
 20 21  1  0
 21 22  1  0
 14  2  1  0
 20 15  1  0
  8  3  1  0
 22 17  1  0
 12  7  1  0
M  END
>  <zinc_id>  (1) 
ZINC000006094354

>  <smiles>  (1) 
O=C1c2cccc3c2[C@@H](CCC3)CN1[C@@H]1CN2CCC1CC2

$$$$
