
     RDKit          3D

 10 11  0  0  0  0  0  0  0  0999 V2000
   -1.8208    2.1573    0.0091 S   0  0  0  0  0  0  0  0  0  0  0  0
   -1.1880    0.6543    0.0097 C   0  0  0  0  0  0  0  0  0  0  0  0
   -1.9689   -0.4277    0.0238 N   0  0  0  0  0  0  0  0  0  0  0  0
   -1.4305   -1.6419    0.0240 C   0  0  0  0  0  0  0  0  0  0  0  0
   -0.1183   -1.8117    0.0105 N   0  0  0  0  0  0  0  0  0  0  0  0
    0.7372   -0.7869   -0.0041 C   0  0  0  0  0  0  0  0  0  0  0  0
    2.0624   -0.6356   -0.0194 N   0  0  0  0  0  0  0  0  0  0  0  0
    2.3421    0.6666   -0.0291 C   0  0  0  0  0  0  0  0  0  0  0  0
    1.1931    1.3472   -0.0199 N   0  0  0  0  0  0  0  0  0  0  0  0
    0.1917    0.4784   -0.0045 C   0  0  0  0  0  0  0  0  0  0  0  0
  1  2  2  0
  2  3  1  0
  3  4  1  0
  4  5  2  0
  5  6  1  0
  6  7  1  0
  7  8  2  0
  8  9  1  0
  9 10  1  0
 10  2  1  0
 10  6  2  0
M  END
>  <zinc_id>  (1) 
ZINC000004658290

>  <smiles>  (1) 
S=c1[nH]cnc2nc[nH]c12

$$$$
