
     RDKit          3D

  7  6  0  0  0  0  0  0  0  0999 V2000
   -0.9908    1.3110   -0.7415 C   0  0  0  0  0  0  0  0  0  0  0  0
   -0.7098    0.0865   -0.0019 N   0  0  0  0  0  0  0  0  0  0  0  0
   -1.9532   -0.6861    0.0836 C   0  0  0  0  0  0  0  0  0  0  0  0
   -0.2321    0.4568    1.3162 C   0  0  0  0  0  0  0  0  0  0  0  0
    0.2339   -0.6901   -0.7512 C   0  0  0  0  0  0  0  0  0  0  0  0
    1.5546   -0.8680   -0.0573 C   0  0  0  0  0  0  0  0  0  0  0  0
    2.0974    0.3899    0.1521 O   0  0  0  0  0  0  0  0  0  0  0  0
  1  2  1  0
  2  3  1  0
  2  4  1  0
  2  5  1  0
  5  6  1  0
  6  7  1  0
M  CHG  1   2   1
M  END
>  <zinc_id>  (1) 
ZINC000003079337

>  <smiles>  (1) 
C[N+](C)(C)CCO

$$$$
