
     RDKit          3D

 29 32  0  0  0  0  0  0  0  0999 V2000
   -4.9296    0.0632    0.7027 C   0  0  0  0  0  0  0  0  0  0  0  0
   -3.6520   -0.5849    0.3337 C   0  0  0  0  0  0  0  0  0  0  0  0
   -3.6014   -1.9300    0.0682 C   0  0  0  0  0  0  0  0  0  0  0  0
   -4.6391   -2.6526    0.1306 O   0  0  0  0  0  0  0  0  0  0  0  0
   -2.3937   -2.5267   -0.2775 C   0  0  0  0  0  0  0  0  0  0  0  0
   -2.3080   -3.8704   -0.5491 C   0  0  0  0  0  0  0  0  0  0  0  0
   -1.0937   -4.4432   -0.8911 C   0  0  0  0  0  0  0  0  0  0  0  0
    0.0275   -3.6762   -0.9611 C   0  0  0  0  0  0  0  0  0  0  0  0
   -0.0499   -2.3183   -0.6884 C   0  0  0  0  0  0  0  0  0  0  0  0
    1.1413   -1.4791   -0.7546 C   0  0  0  0  0  0  0  0  0  0  0  0
    2.2283   -2.0503   -1.0722 O   0  0  0  0  0  0  0  0  0  0  0  0
    1.0981   -0.1148   -0.4838 O   0  0  0  0  0  0  0  0  0  0  0  0
    2.3171    0.6116   -0.5769 C   0  0  0  0  0  0  0  0  0  0  0  0
    3.2644   -0.0216    0.4315 C   0  0  0  0  0  0  0  0  0  0  0  0
    4.5519    0.5989    0.4662 N   0  0  0  0  0  0  0  0  0  0  0  0
    4.4607    1.9416    1.0026 C   0  0  0  0  0  0  0  0  0  0  0  0
    5.8433    2.4807    1.3148 C   0  0  0  0  0  0  0  0  0  0  0  0
    6.8465    2.0966    0.2503 C   0  0  0  0  0  0  0  0  0  0  0  0
    6.0964    1.7715   -1.0235 C   0  0  0  0  0  0  0  0  0  0  0  0
    5.1920    0.5717   -0.8176 C   0  0  0  0  0  0  0  0  0  0  0  0
   -1.2651   -1.7458   -0.3461 C   0  0  0  0  0  0  0  0  0  0  0  0
   -1.3605   -0.4643   -0.0844 O   0  0  0  0  0  0  0  0  0  0  0  0
   -2.4673    0.1402    0.2436 C   0  0  0  0  0  0  0  0  0  0  0  0
   -2.5393    1.5688    0.5286 C   0  0  0  0  0  0  0  0  0  0  0  0
   -1.4045    2.3394    0.4444 C   0  0  0  0  0  0  0  0  0  0  0  0
   -1.3817    3.6789    0.6959 C   0  0  0  0  0  0  0  0  0  0  0  0
   -2.5553    4.2985    1.0542 C   0  0  0  0  0  0  0  0  0  0  0  0
   -3.6985    3.5375    1.1419 C   0  0  0  0  0  0  0  0  0  0  0  0
   -3.7280    2.1790    0.8882 C   0  0  0  0  0  0  0  0  0  0  0  0
  1  2  1  0
  2  3  1  0
  3  4  2  0
  3  5  1  0
  5  6  2  0
  6  7  1  0
  7  8  2  0
  8  9  1  0
  9 10  1  0
 10 11  2  0
 10 12  1  0
 12 13  1  0
 13 14  1  0
 14 15  1  0
 15 16  1  0
 16 17  1  0
 17 18  1  0
 18 19  1  0
 19 20  1  0
  9 21  2  0
 21 22  1  0
 22 23  1  0
 23 24  1  0
 24 25  2  0
 25 26  1  0
 26 27  2  0
 27 28  1  0
 28 29  2  0
 23  2  2  0
 29 24  1  0
 21  5  1  0
 20 15  1  0
M  END
>  <zinc_id>  (1) 
ZINC000000608382

>  <smiles>  (1) 
Cc1c(-c2ccccc2)oc2c(C(=O)OCCN3CCCCC3)cccc2c1=O

$$$$
