
     RDKit          3D

 19 20  0  0  0  0  0  0  0  0999 V2000
    4.2198   -1.8242   -1.1667 C   0  0  0  0  0  0  0  0  0  0  0  0
    4.5337   -0.4896   -0.6191 C   0  0  0  0  0  0  0  0  0  0  0  0
    5.7284    0.1219   -1.2650 C   0  0  0  0  0  0  0  0  0  0  0  0
    4.6125   -0.4518    0.8024 N   0  0  0  0  0  0  0  0  0  0  0  0
    3.3930   -0.7569    1.4407 C   0  0  0  0  0  0  0  0  0  0  0  0
    2.3344    0.4719    1.2272 C   0  0  1  0  0  0  0  0  0  0  0  0
    2.3008    0.3668   -0.2807 O   0  0  0  0  0  0  0  0  0  0  0  0
    1.0058   -0.5433    1.4260 C   0  0  0  0  0  0  0  0  0  0  0  0
   -0.0177    0.0781    0.7538 O   0  0  0  0  0  0  0  0  0  0  0  0
   -1.2984   -0.3139    0.6024 C   0  0  0  0  0  0  0  0  0  0  0  0
   -1.7604   -1.4636    1.1483 C   0  0  0  0  0  0  0  0  0  0  0  0
   -3.0822   -1.8608    0.9884 C   0  0  0  0  0  0  0  0  0  0  0  0
   -3.8976   -1.0476    0.2599 C   0  0  0  0  0  0  0  0  0  0  0  0
   -3.4753    0.1364   -0.3183 C   0  0  0  0  0  0  0  0  0  0  0  0
   -4.3676    0.9139   -1.0523 C   0  0  0  0  0  0  0  0  0  0  0  0
   -3.8324    2.0754   -1.5870 C   0  0  0  0  0  0  0  0  0  0  0  0
   -2.5401    2.4494   -1.4219 C   0  0  0  0  0  0  0  0  0  0  0  0
   -1.6963    1.6541   -0.6919 C   0  0  0  0  0  0  0  0  0  0  0  0
   -2.1602    0.4837   -0.1307 C   0  0  0  0  0  0  0  0  0  0  0  0
  1  2  1  0
  2  3  1  0
  2  4  1  0
  4  5  1  0
  5  6  1  0
  6  7  1  6
  6  8  1  0
  8  9  1  0
  9 10  1  0
 10 11  2  0
 11 12  1  0
 12 13  2  0
 13 14  1  0
 14 15  2  0
 15 16  1  0
 16 17  2  0
 17 18  1  0
 18 19  2  0
 19 10  1  0
 19 14  1  0
M  END
>  <zinc_id>  (1) 
ZINC000000020240

>  <smiles>  (1) 
CC(C)NC[C@@H](O)COc1cccc2ccccc12

$$$$
