
     RDKit          3D

 28 29  0  0  0  0  0  0  0  0999 V2000
    6.8213    1.3209    1.4581 C   0  0  0  0  0  0  0  0  0  0  0  0
    6.2363    1.0050    1.7950 C   0  0  0  0  0  0  0  0  0  0  0  0
    5.1136    0.3456    1.2622 O   0  0  0  0  0  0  0  0  0  0  0  0
    5.3034   -0.8048    0.4907 C   0  0  0  0  0  0  0  0  0  0  0  0
    6.5246   -1.3245    0.2393 C   0  0  0  0  0  0  0  0  0  0  0  0
    6.6614   -2.4657   -0.5295 C   0  0  0  0  0  0  0  0  0  0  0  0
    5.5430   -3.0914   -1.0465 C   0  0  0  0  0  0  0  0  0  0  0  0
    4.3160   -2.5718   -0.7934 C   0  0  0  0  0  0  0  0  0  0  0  0
    4.1500   -1.4152   -0.0208 C   0  0  0  0  0  0  0  0  0  0  0  0
    2.9844   -0.9204    0.2113 O   0  0  0  0  0  0  0  0  0  0  0  0
    1.7378   -0.5794    0.3242 C   0  0  0  0  0  0  0  0  0  0  0  0
    0.8690   -0.1807   -0.6286 C   0  0  0  0  0  0  0  0  0  0  0  0
    0.0532    0.1926   -1.5165 N   0  0  0  0  0  0  0  0  0  0  0  0
   -0.3949    1.7149   -1.4402 C   0  0  2  0  0  0  0  0  0  0  0  0
    1.0396    2.4120   -1.4032 C   0  0  0  0  0  0  0  0  0  0  0  0
   -0.7910    1.7420    0.1058 C   0  0  0  0  0  0  0  0  0  0  0  0
   -2.0084    0.8543    0.1680 C   0  0  0  0  0  0  0  0  0  0  0  0
   -2.0824   -0.4657    0.4024 C   0  0  0  0  0  0  0  0  0  0  0  0
   -3.2739   -1.1779    0.3893 C   0  0  0  0  0  0  0  0  0  0  0  0
   -4.4615   -0.5464    0.1299 C   0  0  0  0  0  0  0  0  0  0  0  0
   -5.6805   -1.1820    0.1008 O   0  0  0  0  0  0  0  0  0  0  0  0
   -5.7917   -2.5714    0.3342 C   0  0  0  0  0  0  0  0  0  0  0  0
   -4.4339    0.8209   -0.1185 C   0  0  0  0  0  0  0  0  0  0  0  0
   -5.9357    1.6672   -0.4952 S   0  0  0  0  0  0  0  0  0  0  0  0
   -6.6591    1.1096   -1.9540 N   0  0  0  0  0  0  0  0  0  0  0  0
   -5.6798    3.1392   -0.5860 O   0  0  0  0  0  0  0  0  0  0  0  0
   -6.9145    1.4617    0.6384 O   0  0  0  0  0  0  0  0  0  0  0  0
   -3.2465    1.5116   -0.1024 C   0  0  0  0  0  0  0  0  0  0  0  0
  1  2  1  0
  2  3  1  0
  3  4  1  0
  4  5  2  0
  5  6  1  0
  6  7  2  0
  7  8  1  0
  8  9  2  0
  9 10  1  0
 10 11  1  0
 11 12  1  0
 12 13  1  0
 13 14  1  0
 14 15  1  1
 14 16  1  0
 16 17  1  0
 17 18  2  0
 18 19  1  0
 19 20  2  0
 20 21  1  0
 21 22  1  0
 20 23  1  0
 23 24  1  0
 24 25  1  0
 24 26  2  0
 24 27  2  0
 23 28  2  0
  9  4  1  0
 28 17  1  0
M  END
>  <zinc_id>  (1) 
ZINC000001530694

>  <smiles>  (1) 
CCOc1ccccc1OCCN[C@H](C)Cc1ccc(OC)c(S(N)(=O)=O)c1

$$$$
