
     RDKit          3D

 18 19  0  0  0  0  0  0  0  0999 V2000
   -2.1213   -0.3205   -2.3483 C   0  0  0  0  0  0  0  0  0  0  0  0
   -2.5940   -0.1689   -1.0733 C   0  0  0  0  0  0  0  0  0  0  0  0
   -3.9962   -0.1081   -0.9332 C   0  0  0  0  0  0  0  0  0  0  0  0
   -4.5530    0.0435    0.3155 C   0  0  0  0  0  0  0  0  0  0  0  0
   -3.7134    0.1326    1.4067 C   0  0  0  0  0  0  0  0  0  0  0  0
   -2.3554    0.0720    1.2548 C   0  0  0  0  0  0  0  0  0  0  0  0
   -1.5270    0.1758    2.4802 C   0  0  0  0  0  0  0  0  0  0  0  0
   -1.7506   -0.0839   -0.0200 C   0  0  0  0  0  0  0  0  0  0  0  0
   -0.4232   -0.1213    0.0368 N   0  0  0  0  0  0  0  0  0  0  0  0
    0.7262   -0.2298   -0.6265 C   0  0  0  0  0  0  0  0  0  0  0  0
    0.6813   -0.3521   -1.7854 O   0  0  0  0  0  0  0  0  0  0  0  0
    1.9672   -0.1673    0.3380 C   0  0  2  0  0  0  0  0  0  0  0  0
    2.1002    1.4837    0.3664 C   0  0  0  0  0  0  0  0  0  0  0  0
    3.3137    1.6321    1.2421 C   0  0  0  0  0  0  0  0  0  0  0  0
    4.1398    0.3825    1.3068 C   0  0  0  0  0  0  0  0  0  0  0  0
    4.2601   -0.3462    0.0152 C   0  0  0  0  0  0  0  0  0  0  0  0
    3.0464   -0.3224   -0.7831 N   0  0  0  0  0  0  0  0  0  0  0  0
    2.7993   -1.7017   -1.1927 C   0  0  0  0  0  0  0  0  0  0  0  0
  1  2  1  0
  2  3  2  0
  3  4  1  0
  4  5  2  0
  5  6  1  0
  6  7  1  0
  6  8  2  0
  8  9  1  0
  9 10  1  0
 10 11  2  0
 12 10  1  6
 12 13  1  0
 13 14  1  0
 14 15  1  0
 15 16  1  0
 16 17  1  0
 17 18  1  0
  8  2  1  0
 17 12  1  0
M  END
>  <zinc_id>  (1) 
ZINC000000154964

>  <smiles>  (1) 
Cc1cccc(C)c1NC(=O)[C@@H]1CCCCN1C

$$$$
