
     RDKit          3D

 29 31  0  0  0  0  0  0  0  0999 V2000
    5.3834   -0.1998   -1.7984 C   0  0  0  0  0  0  0  0  0  0  0  0
    5.8407   -1.4302   -1.0549 C   0  0  0  0  0  0  0  0  0  0  0  0
    4.7918   -1.8292   -0.1530 N   0  0  0  0  0  0  0  0  0  0  0  0
    5.0096   -3.0192    0.6637 C   0  0  0  0  0  0  0  0  0  0  0  0
    6.0898   -2.7717    1.6943 C   0  0  0  0  0  0  0  0  0  0  0  0
    3.5994   -1.0771   -0.0713 C   0  0  0  0  0  0  0  0  0  0  0  0
    3.4064   -0.0840    0.8712 C   0  0  0  0  0  0  0  0  0  0  0  0
    2.2133    0.6174    0.9168 C   0  0  0  0  0  0  0  0  0  0  0  0
    1.1722    0.3844    0.0538 C   0  0  0  0  0  0  0  0  0  0  0  0
   -0.0940    1.0981    0.0646 C   0  0  0  0  0  0  0  0  0  0  0  0
   -0.1584    2.5156    0.3234 C   0  0  0  0  0  0  0  0  0  0  0  0
   -0.9807    3.3333   -0.4652 C   0  0  0  0  0  0  0  0  0  0  0  0
   -1.0345    4.6725   -0.1911 C   0  0  0  0  0  0  0  0  0  0  0  0
   -0.3279    5.2858    0.8211 C   0  0  0  0  0  0  0  0  0  0  0  0
    0.4853    4.4771    1.6008 C   0  0  0  0  0  0  0  0  0  0  0  0
    0.5441    3.1335    1.3317 C   0  0  0  0  0  0  0  0  0  0  0  0
   -1.2057    0.4162   -0.1824 C   0  0  0  0  0  0  0  0  0  0  0  0
   -2.5167    1.0258   -0.1973 C   0  0  0  0  0  0  0  0  0  0  0  0
   -3.6380    0.3919   -0.4193 C   0  0  0  0  0  0  0  0  0  0  0  0
   -3.5806   -1.0742   -0.6784 C   0  0  0  0  0  0  0  0  0  0  0  0
   -4.6503   -1.7139   -0.8986 N   0  0  0  0  0  0  0  0  0  0  0  0
   -4.7571   -3.1036   -1.1613 C   0  0  0  0  0  0  0  0  0  0  0  0
   -3.4948   -3.9004   -1.1880 C   0  0  0  0  0  0  0  0  0  0  0  0
   -5.9528   -0.9937   -0.8982 C   0  0  0  0  0  0  0  0  0  0  0  0
   -6.7001   -1.4929    0.3354 C   0  0  0  0  0  0  0  0  0  0  0  0
   -2.2682   -1.6712   -0.6602 C   0  0  0  0  0  0  0  0  0  0  0  0
   -1.1516   -1.0315   -0.4388 C   0  0  0  0  0  0  0  0  0  0  0  0
    1.4002   -0.6287   -0.8927 C   0  0  0  0  0  0  0  0  0  0  0  0
    2.5752   -1.3304   -0.9466 C   0  0  0  0  0  0  0  0  0  0  0  0
  1  2  1  0
  2  3  1  0
  3  4  1  0
  4  5  1  0
  3  6  1  0
  6  7  2  0
  7  8  1  0
  8  9  2  0
  9 10  1  0
 10 11  1  0
 11 12  2  0
 12 13  1  0
 13 14  2  0
 14 15  1  0
 15 16  2  0
 10 17  2  3
 17 18  1  0
 18 19  2  0
 19 20  1  0
 20 21  2  3
 21 22  1  0
 22 23  1  0
 21 24  1  0
 24 25  1  0
 20 26  1  0
 26 27  2  0
  9 28  1  0
 28 29  2  0
 29  6  1  0
 16 11  1  0
 27 17  1  0
M  CHG  1  21   1
M  END
>  <zinc_id>  (1) 
ZINC000004235575

>  <smiles>  (1) 
CCN(CC)c1ccc(C(=C2C=CC(=[N+](CC)CC)C=C2)c2ccccc2)cc1

$$$$
