
     RDKit          3D

 30 31  0  0  0  0  0  0  0  0999 V2000
   10.0991    1.4134    1.3301 C   0  0  0  0  0  0  0  0  0  0  0  0
    8.9053    1.4095    2.2320 C   0  0  0  0  0  0  0  0  0  0  0  0
    7.7642    1.0738    1.4392 N   0  0  0  0  0  0  0  0  0  0  0  0
    6.4635    0.9888    2.0194 C   0  0  0  0  0  0  0  0  0  0  0  0
    6.3019    1.2105    3.2490 O   0  0  0  0  0  0  0  0  0  0  0  0
    5.3417    0.6318    1.1054 C   0  0  0  0  0  0  0  0  0  0  0  0
    4.0933    0.6013    1.9172 C   0  0  0  0  0  0  0  0  0  0  0  0
    2.8468    0.2694    1.2245 C   0  0  0  0  0  0  0  0  0  0  0  0
    2.4322    1.1361    0.1385 C   0  0  0  0  0  0  0  0  0  0  0  0
    2.2645    0.7364   -1.0826 C   0  0  0  0  0  0  0  0  0  0  0  0
    2.4583   -0.6241   -1.5661 C   0  0  0  0  0  0  0  0  0  0  0  0
    1.0524   -1.0103   -2.2131 C   0  0  2  0  0  0  0  0  0  0  0  0
    0.1748   -0.8442   -0.8201 C   0  0  1  0  0  0  0  0  0  0  0  0
   -1.1995   -0.7044   -1.5737 C   0  0  0  0  0  0  0  0  0  0  0  0
   -2.1218    0.1114   -1.0939 C   0  0  0  0  0  0  0  0  0  0  0  0
   -3.4685    0.1270   -1.9982 C   0  0  1  0  0  0  0  0  0  0  0  0
   -3.7383   -1.3503   -1.7196 O   0  0  0  0  0  0  0  0  0  0  0  0
   -4.4279    0.6555   -0.7753 C   0  0  0  0  0  0  0  0  0  0  0  0
   -5.8168    0.7666   -1.3651 C   0  0  0  0  0  0  0  0  0  0  0  0
   -6.6702    1.2501   -0.2288 C   0  0  0  0  0  0  0  0  0  0  0  0
   -6.8382    2.5932   -0.0207 C   0  0  0  0  0  0  0  0  0  0  0  0
   -7.6125    3.0752    1.0097 C   0  0  0  0  0  0  0  0  0  0  0  0
   -8.2082    2.1340    1.8188 C   0  0  0  0  0  0  0  0  0  0  0  0
   -8.0654    0.7804    1.6445 C   0  0  0  0  0  0  0  0  0  0  0  0
   -7.2851    0.3570    0.6054 C   0  0  0  0  0  0  0  0  0  0  0  0
   -0.0358   -2.5177   -0.5520 C   0  0  2  0  0  0  0  0  0  0  0  0
    0.0113   -2.3350    0.9541 O   0  0  0  0  0  0  0  0  0  0  0  0
    1.5697   -2.7961   -0.6730 C   0  0  0  0  0  0  0  0  0  0  0  0
    1.1550   -2.6681   -2.2379 C   0  0  2  0  0  0  0  0  0  0  0  0
    2.5542   -2.7493   -2.7680 O   0  0  0  0  0  0  0  0  0  0  0  0
  1  2  1  0
  2  3  1  0
  3  4  1  0
  4  5  2  0
  4  6  1  0
  6  7  1  0
  7  8  1  0
  8  9  1  0
  9 10  2  0
 10 11  1  0
 12 11  1  1
 12 13  1  0
 13 14  1  6
 14 15  2  0
 15 16  1  0
 16 17  1  1
 16 18  1  0
 18 19  1  0
 19 20  1  0
 20 21  2  0
 21 22  1  0
 22 23  2  0
 23 24  1  0
 24 25  2  0
 13 26  1  0
 26 27  1  1
 26 28  1  0
 28 29  1  0
 29 30  1  6
 29 12  1  0
 25 20  1  0
M  END
>  <zinc_id>  (1) 
ZINC000004474405

>  <smiles>  (1) 
CCNC(=O)CCC/C=C\C[C@H]1[C@@H](O)C[C@@H](O)[C@@H]1/C=C/[C@@H](O)CCc1ccccc1

$$$$
