
     RDKit          2D

 18 18  0  0  0  0  0  0  0  0999 V2000
   -4.6410    1.4079    0.0000 C   0  0  0  0  0  0  0  0  0  0  0  0
   -3.7033    0.2371    0.0000 N   0  0  0  0  0  0  0  0  0  0  0  0
   -4.2485   -1.1603    0.0000 N   0  0  0  0  0  0  0  0  0  0  0  0
   -5.7313   -1.3869    0.0000 O   0  0  0  0  0  0  0  0  0  0  0  0
   -2.2205    0.4637    0.0000 C   0  0  0  0  0  0  0  0  0  0  0  0
   -1.6754    1.8611    0.0000 O   0  0  0  0  0  0  0  0  0  0  0  0
   -1.2829   -0.7071    0.0000 N   0  0  0  0  0  0  0  0  0  0  0  0
    0.1999   -0.4805    0.0000 C   0  0  0  0  0  0  0  0  0  0  0  0
    0.7450    0.9169    0.0000 C   0  0  0  0  0  0  0  0  0  0  0  0
   -0.1926    2.0878    0.0000 O   0  0  0  0  0  0  0  0  0  0  0  0
    2.2278    1.1435    0.0000 C   0  0  0  0  0  0  0  0  0  0  0  0
    2.7730    2.5410    0.0000 O   0  0  0  0  0  0  0  0  0  0  0  0
    3.1655   -0.0273    0.0000 C   0  0  0  0  0  0  0  0  0  0  0  0
    4.6482    0.1993    0.0000 C   0  0  0  0  0  0  0  0  0  0  0  0
    5.5859   -0.9715    0.0000 O   0  0  0  0  0  0  0  0  0  0  0  0
    2.6203   -1.4247    0.0000 O   0  0  0  0  0  0  0  0  0  0  0  0
    1.1375   -1.6513    0.0000 C   0  0  0  0  0  0  0  0  0  0  0  0
    0.5924   -3.0488    0.0000 O   0  0  0  0  0  0  0  0  0  0  0  0
  1  2  1  0
  2  3  1  0
  3  4  2  0
  2  5  1  0
  5  6  2  0
  5  7  1  0
  8  7  1  6
  8  9  1  0
  9 10  1  1
  9 11  1  0
 11 12  1  6
 11 13  1  0
 13 14  1  1
 14 15  1  0
 13 16  1  0
 16 17  1  0
 17 18  1  6
 17  8  1  0
M  END
>  <zinc_id>  (1) 
ZINC000003977737

>  <smiles>  (1) 
CN(N=O)C(=O)N[C@H]1[C@@H](O)O[C@H](CO)[C@@H](O)[C@@H]1O

$$$$
