
     RDKit          3D

 18 19  0  0  0  0  0  0  0  0999 V2000
   -2.6824   -3.1935    0.4134 N   0  0  0  0  0  0  0  0  0  0  0  0
   -2.4762   -1.7887    0.1598 C   0  0  0  0  0  0  0  0  0  0  0  0
   -1.2432   -1.3152   -0.0890 N   0  0  0  0  0  0  0  0  0  0  0  0
   -1.0540    0.0151   -0.3283 C   0  0  0  0  0  0  0  0  0  0  0  0
   -2.1354    0.8613   -0.3118 C   0  0  0  0  0  0  0  0  0  0  0  0
   -1.7154    2.1092   -0.5703 N   0  0  0  0  0  0  0  0  0  0  0  0
   -0.3855    2.0177   -0.7423 C   0  0  0  0  0  0  0  0  0  0  0  0
    0.0369    0.7532   -0.5994 N   0  0  0  0  0  0  0  0  0  0  0  0
    1.3877    0.2936   -0.7156 C   0  0  0  0  0  0  0  0  0  0  0  0
    1.9912    0.3588    0.5517 O   0  0  0  0  0  0  0  0  0  0  0  0
    3.3134   -0.0787    0.4988 C   0  0  0  0  0  0  0  0  0  0  0  0
    3.3447   -1.5128    0.0162 C   0  0  0  0  0  0  0  0  0  0  0  0
    4.6196   -2.0192   -0.0634 O   0  0  0  0  0  0  0  0  0  0  0  0
    4.1630    0.8161   -0.3930 C   0  0  0  0  0  0  0  0  0  0  0  0
    4.1374    2.0995    0.1168 O   0  0  0  0  0  0  0  0  0  0  0  0
   -3.4032    0.3649   -0.0544 C   0  0  0  0  0  0  0  0  0  0  0  0
   -4.3701    1.1690   -0.0473 O   0  0  0  0  0  0  0  0  0  0  0  0
   -3.5285   -0.9504    0.1735 N   0  0  0  0  0  0  0  0  0  0  0  0
  1  2  1  0
  2  3  2  0
  3  4  1  0
  4  5  2  0
  5  6  1  0
  6  7  2  0
  7  8  1  0
  8  9  1  0
  9 10  1  0
 10 11  1  0
 11 12  1  0
 12 13  1  0
 11 14  1  0
 14 15  1  0
  5 16  1  0
 16 17  2  0
 16 18  1  0
 18  2  1  0
  8  4  1  0
M  END
>  <zinc_id>  (1) 
ZINC000000001505

>  <smiles>  (1) 
Nc1nc2c(ncn2COC(CO)CO)c(=O)[nH]1

$$$$
