
     RDKit          3D

 22 25  0  0  0  0  0  0  0  0999 V2000
    4.8894   -0.6897    0.4750 C   0  0  0  0  0  0  0  0  0  0  0  0
    3.5035   -0.5074    0.0921 N   0  0  0  0  0  0  0  0  0  0  0  0
    3.1595   -1.5514   -0.8446 C   0  0  0  0  0  0  0  0  0  0  0  0
    1.6631   -1.5130   -1.1780 C   0  0  0  0  0  0  0  0  0  0  0  0
    1.1945   -0.1310   -0.9212 C   0  0  0  0  0  0  0  0  0  0  0  0
    0.0035    0.0923   -0.4012 C   0  0  0  0  0  0  0  0  0  0  0  0
   -0.3678    1.5149   -0.1845 C   0  0  0  0  0  0  0  0  0  0  0  0
    0.3636    2.4932   -0.7660 C   0  0  0  0  0  0  0  0  0  0  0  0
    0.0102    3.7812   -0.5575 C   0  0  0  0  0  0  0  0  0  0  0  0
   -1.3504    3.6389    0.4551 S   0  0  0  0  0  0  0  0  0  0  0  0
   -1.4258    1.9417    0.5807 C   0  0  0  0  0  0  0  0  0  0  0  0
   -2.4163    1.1532    1.3452 C   0  0  0  0  0  0  0  0  0  0  0  0
   -3.4574    1.8117    1.5704 O   0  0  0  0  0  0  0  0  0  0  0  0
   -2.3604   -0.2267    1.8560 C   0  0  0  0  0  0  0  0  0  0  0  0
   -1.8126   -1.1841    0.8562 C   0  0  0  0  0  0  0  0  0  0  0  0
   -2.4545   -2.3964    0.9530 C   0  0  0  0  0  0  0  0  0  0  0  0
   -2.1530   -3.4701    0.1565 C   0  0  0  0  0  0  0  0  0  0  0  0
   -1.1619   -3.3284   -0.7838 C   0  0  0  0  0  0  0  0  0  0  0  0
   -0.4843   -2.1417   -0.9285 C   0  0  0  0  0  0  0  0  0  0  0  0
   -0.8209   -1.0669   -0.0960 C   0  0  0  0  0  0  0  0  0  0  0  0
    2.1293    0.9563   -1.2785 C   0  0  0  0  0  0  0  0  0  0  0  0
    3.3485    0.8234   -0.4002 C   0  0  0  0  0  0  0  0  0  0  0  0
  1  2  1  0
  2  3  1  0
  3  4  1  0
  4  5  1  0
  5  6  2  3
  6  7  1  0
  7  8  1  0
  8  9  2  0
  9 10  1  0
 10 11  1  0
 11 12  1  0
 12 13  2  0
 12 14  1  0
 14 15  1  0
 15 16  2  0
 16 17  1  0
 17 18  2  0
 18 19  1  0
 19 20  2  0
  5 21  1  0
 21 22  1  0
 22  2  1  0
 20  6  1  0
 11  7  2  0
 20 15  1  0
M  END
>  <zinc_id>  (1) 
ZINC000000004351

>  <smiles>  (1) 
CN1CCC(=C2c3ccccc3CC(=O)c3sccc32)CC1

$$$$
