
     RDKit          3D

 28 29  0  0  0  0  0  0  0  0999 V2000
   -4.3958    2.2028    4.0461 C   0  0  0  0  0  0  0  0  0  0  0  0
   -4.8328    0.9741    3.4825 O   0  0  0  0  0  0  0  0  0  0  0  0
   -4.3082    0.4727    2.3156 C   0  0  0  0  0  0  0  0  0  0  0  0
   -3.3178    1.1544    1.6297 C   0  0  0  0  0  0  0  0  0  0  0  0
   -2.7878    0.6675    0.4694 C   0  0  0  0  0  0  0  0  0  0  0  0
   -1.7452    1.3377   -0.2876 C   0  0  0  0  0  0  0  0  0  0  0  0
   -1.1807    2.3322    0.2256 O   0  0  0  0  0  0  0  0  0  0  0  0
   -1.3262    0.9330   -1.5764 N   0  0  0  0  0  0  0  0  0  0  0  0
   -0.2881    1.5874   -2.3390 C   0  0  0  0  0  0  0  0  0  0  0  0
    1.0824    1.2387   -1.8867 C   0  0  0  0  0  0  0  0  0  0  0  0
    1.6832    1.7564   -0.7608 C   0  0  0  0  0  0  0  0  0  0  0  0
    2.9589    1.3944   -0.3935 C   0  0  0  0  0  0  0  0  0  0  0  0
    3.7065    0.4996   -1.1236 C   0  0  0  0  0  0  0  0  0  0  0  0
    4.9920    0.1549   -0.7222 O   0  0  0  0  0  0  0  0  0  0  0  0
    5.7035   -0.7708   -1.5360 C   0  0  0  0  0  0  0  0  0  0  0  0
    7.0659   -0.9955   -0.9139 C   0  0  0  0  0  0  0  0  0  0  0  0
    7.7475    0.2633   -0.8612 N   0  0  0  0  0  0  0  0  0  0  0  0
    9.0672    0.1913   -0.2913 C   0  0  0  0  0  0  0  0  0  0  0  0
    7.6756    1.0291   -2.0685 C   0  0  0  0  0  0  0  0  0  0  0  0
    3.1237   -0.0363   -2.2633 C   0  0  0  0  0  0  0  0  0  0  0  0
    1.8462    0.3317   -2.6232 C   0  0  0  0  0  0  0  0  0  0  0  0
   -3.2828   -0.5429    0.0021 C   0  0  0  0  0  0  0  0  0  0  0  0
   -4.2545   -1.2524    0.6373 C   0  0  0  0  0  0  0  0  0  0  0  0
   -4.7467   -2.4706    0.1598 O   0  0  0  0  0  0  0  0  0  0  0  0
   -4.2774   -3.0639   -1.0157 C   0  0  0  0  0  0  0  0  0  0  0  0
   -4.7792   -0.7301    1.8235 C   0  0  0  0  0  0  0  0  0  0  0  0
   -5.7654   -1.4665    2.4518 O   0  0  0  0  0  0  0  0  0  0  0  0
   -5.3641   -2.4416    3.4195 C   0  0  0  0  0  0  0  0  0  0  0  0
  1  2  1  0
  2  3  1  0
  3  4  2  0
  4  5  1  0
  5  6  1  0
  6  7  2  0
  6  8  1  0
  8  9  1  0
  9 10  1  0
 10 11  2  0
 11 12  1  0
 12 13  2  0
 13 14  1  0
 14 15  1  0
 15 16  1  0
 16 17  1  0
 17 18  1  0
 17 19  1  0
 13 20  1  0
 20 21  2  0
  5 22  2  0
 22 23  1  0
 23 24  1  0
 24 25  1  0
 23 26  2  0
 26 27  1  0
 27 28  1  0
 26  3  1  0
 21 10  1  0
M  END
>  <zinc_id>  (1) 
ZINC000000538509

>  <smiles>  (1) 
COc1cc(C(=O)NCc2ccc(OCCN(C)C)cc2)cc(OC)c1OC

$$$$
