
     RDKit          3D

 22 23  0  0  0  0  0  0  0  0999 V2000
   -4.5463    3.6017    0.1863 C   0  0  0  0  0  0  0  0  0  0  0  0
   -3.7472    2.6121   -0.4950 N   0  0  0  0  0  0  0  0  0  0  0  0
   -2.4726    2.5687    0.2863 C   0  0  0  0  0  0  0  0  0  0  0  0
   -1.5477    1.6829   -0.3400 C   0  0  0  0  0  0  0  0  0  0  0  0
   -1.5455    0.2550   -0.5465 C   0  0  0  0  0  0  0  0  0  0  0  0
   -0.4602   -0.2213   -1.2766 O   0  0  0  0  0  0  0  0  0  0  0  0
    0.8261   -0.2006   -0.8681 C   0  0  0  0  0  0  0  0  0  0  0  0
    1.8540   -0.7367   -1.5716 C   0  0  0  0  0  0  0  0  0  0  0  0
    3.1843   -0.7140   -1.2236 C   0  0  0  0  0  0  0  0  0  0  0  0
    3.6253   -0.0990   -0.0420 C   0  0  0  0  0  0  0  0  0  0  0  0
    5.0486    0.1153    0.2426 C   0  0  0  0  0  0  0  0  0  0  0  0
    5.8525   -0.9559    0.2849 F   0  0  0  0  0  0  0  0  0  0  0  0
    5.0960    0.8543    1.4266 F   0  0  0  0  0  0  0  0  0  0  0  0
    5.5523    1.0966   -0.6795 F   0  0  0  0  0  0  0  0  0  0  0  0
    2.5794    0.4388    0.6955 C   0  0  0  0  0  0  0  0  0  0  0  0
    1.2855    0.3915    0.3220 C   0  0  0  0  0  0  0  0  0  0  0  0
   -2.5453   -0.7165   -0.1250 C   0  0  0  0  0  0  0  0  0  0  0  0
   -3.1979   -0.8478    1.1299 C   0  0  0  0  0  0  0  0  0  0  0  0
   -4.0176   -1.8247    1.4811 C   0  0  0  0  0  0  0  0  0  0  0  0
   -4.2870   -2.7955    0.6201 C   0  0  0  0  0  0  0  0  0  0  0  0
   -3.6983   -2.7653   -0.6646 C   0  0  0  0  0  0  0  0  0  0  0  0
   -2.8385   -1.7396   -1.0120 C   0  0  0  0  0  0  0  0  0  0  0  0
  1  2  1  0
  2  3  1  0
  3  4  1  0
  5  4  1  0
  5  6  1  0
  6  7  1  0
  7  8  2  0
  8  9  1  0
  9 10  2  0
 10 11  1  0
 11 12  1  0
 11 13  1  0
 11 14  1  0
 10 15  1  0
 15 16  2  0
  5 17  1  0
 17 18  2  0
 18 19  1  0
 19 20  2  0
 20 21  1  0
 21 22  2  0
 16  7  1  0
 22 17  1  0
M  END
>  <zinc_id>  (1) 
ZINC000001530638

>  <smiles>  (1) 
CNCC[C@@H](Oc1ccc(C(F)(F)F)cc1)c1ccccc1

$$$$
