
     RDKit          3D

 32 36  0  0  0  0  0  0  0  0999 V2000
   -2.6897   -2.6956    0.2076 C   0  0  0  0  0  0  0  0  0  0  0  0
   -2.8735   -2.2029    0.0054 C   0  0  0  0  0  0  0  0  0  0  0  0
   -4.3238   -2.6127   -0.3287 C   0  0  0  0  0  0  0  0  0  0  0  0
   -2.2535   -1.8795   -1.1693 O   0  0  0  0  0  0  0  0  0  0  0  0
   -2.7950   -0.5168   -1.4970 C   0  0  2  0  0  0  0  0  0  0  0  0
   -1.3526    0.0911   -1.9931 C   0  0  0  0  0  0  0  0  0  0  0  0
   -0.5491   -0.3572   -0.6830 C   0  0  1  0  0  0  0  0  0  0  0  0
    0.6777    0.7815   -0.6622 C   0  0  2  0  0  0  0  0  0  0  0  0
    1.5911    0.1684   -1.8333 C   0  0  0  0  0  0  0  0  0  0  0  0
    2.7780    1.3310   -1.6297 C   0  0  2  0  0  0  0  0  0  0  0  0
    3.6412    0.7202   -2.6669 F   0  0  0  0  0  0  0  0  0  0  0  0
    3.4213    0.5923   -0.3750 C   0  0  0  0  0  0  0  0  0  0  0  0
    4.5498    0.0074   -0.5080 C   0  0  0  0  0  0  0  0  0  0  0  0
    5.2217   -0.6977    0.5718 C   0  0  0  0  0  0  0  0  0  0  0  0
    6.3256   -1.2444    0.3590 O   0  0  0  0  0  0  0  0  0  0  0  0
    4.5081   -0.6929    1.8414 C   0  0  0  0  0  0  0  0  0  0  0  0
    3.3488   -0.0683    1.9155 C   0  0  0  0  0  0  0  0  0  0  0  0
    2.6390    0.6526    0.8820 C   0  0  1  0  0  0  0  0  0  0  0  0
    2.4929    2.1390    1.2023 C   0  0  0  0  0  0  0  0  0  0  0  0
    1.4209   -0.0063    0.5251 C   0  0  2  0  0  0  0  0  0  0  0  0
    1.6621   -1.3038    0.1247 F   0  0  0  0  0  0  0  0  0  0  0  0
    0.3474   -0.2734    1.6837 C   0  0  1  0  0  0  0  0  0  0  0  0
    1.0280    0.5659    2.7400 O   0  0  0  0  0  0  0  0  0  0  0  0
   -0.7633    0.8842    1.3713 C   0  0  0  0  0  0  0  0  0  0  0  0
   -1.4741    0.6711    0.1780 C   0  0  1  0  0  0  0  0  0  0  0  0
   -1.4969    1.9915   -0.5820 C   0  0  0  0  0  0  0  0  0  0  0  0
   -2.7501    0.0382    0.0272 C   0  0  1  0  0  0  0  0  0  0  0  0
   -3.9323    0.9489   -0.0312 C   0  0  0  0  0  0  0  0  0  0  0  0
   -4.0096    1.9972   -0.6122 O   0  0  0  0  0  0  0  0  0  0  0  0
   -5.1590    0.5537    0.6904 C   0  0  0  0  0  0  0  0  0  0  0  0
   -6.2003    1.4697    0.5725 O   0  0  0  0  0  0  0  0  0  0  0  0
   -3.0310   -1.0525    0.7587 O   0  0  0  0  0  0  0  0  0  0  0  0
  1  2  1  0
  2  3  1  0
  2  4  1  0
  4  5  1  0
  5  6  1  6
  7  6  1  6
  7  8  1  0
  8  9  1  6
  9 10  1  0
 10 11  1  6
 10 12  1  0
 12 13  2  0
 13 14  1  0
 14 15  2  0
 14 16  1  0
 16 17  2  0
 17 18  1  0
 18 19  1  1
 18 20  1  0
 20 21  1  6
 20 22  1  0
 22 23  1  1
 22 24  1  0
 24 25  1  0
 25 26  1  6
 25 27  1  0
 27 28  1  6
 28 29  2  0
 28 30  1  0
 30 31  1  0
 27 32  1  0
 32  2  1  0
 27  5  1  0
 25  7  1  0
 20  8  1  0
 18 12  1  0
M  END
>  <zinc_id>  (1) 
ZINC000003977981

>  <smiles>  (1) 
CC1(C)O[C@@H]2C[C@H]3[C@@H]4C[C@H](F)C5=CC(=O)C=C[C@]5(C)[C@@]4(F)[C@@H](O)C[C@]3(C)[C@]2(C(=O)CO)O1

$$$$
