
     RDKit          3D

 31 33  0  0  0  0  0  0  0  0999 V2000
    2.8688    4.5905    0.1559 C   0  0  0  0  0  0  0  0  0  0  0  0
    2.7551    4.1554    1.3896 C   0  0  0  0  0  0  0  0  0  0  0  0
    2.7426    2.7327    1.5159 O   0  0  0  0  0  0  0  0  0  0  0  0
    1.7478    2.0887    0.8317 C   0  0  0  0  0  0  0  0  0  0  0  0
    0.9558    2.7676    0.1699 O   0  0  0  0  0  0  0  0  0  0  0  0
    1.5680    0.5495    0.8412 C   0  0  2  0  0  0  0  0  0  0  0  0
    3.0139    0.0782    0.2311 C   0  0  0  0  0  0  0  0  0  0  0  0
    2.9521   -1.4360    0.1991 C   0  0  0  0  0  0  0  0  0  0  0  0
    4.2535   -1.8784   -0.3475 C   0  0  0  0  0  0  0  0  0  0  0  0
    4.4188   -2.0511   -1.7363 C   0  0  0  0  0  0  0  0  0  0  0  0
    5.6152   -2.4653   -2.2463 C   0  0  0  0  0  0  0  0  0  0  0  0
    6.6946   -2.7317   -1.4390 C   0  0  0  0  0  0  0  0  0  0  0  0
    6.5641   -2.5760   -0.0816 C   0  0  0  0  0  0  0  0  0  0  0  0
    5.3618   -2.1577    0.4149 C   0  0  0  0  0  0  0  0  0  0  0  0
    0.7776    0.3400   -0.4489 N   0  0  0  0  0  0  0  0  0  0  0  0
   -0.5788    1.0276   -0.1853 C   0  0  1  0  0  0  0  0  0  0  0  0
   -0.7983    1.4236   -1.8171 C   0  0  0  0  0  0  0  0  0  0  0  0
   -1.5532   -0.2317   -0.3403 C   0  0  0  0  0  0  0  0  0  0  0  0
   -1.0261   -1.3471   -0.5734 O   0  0  0  0  0  0  0  0  0  0  0  0
   -2.8360    0.0679   -0.2126 N   0  0  0  0  0  0  0  0  0  0  0  0
   -3.8910    1.0511    0.1193 C   0  0  2  0  0  0  0  0  0  0  0  0
   -3.2524    2.1439    1.0413 C   0  0  0  0  0  0  0  0  0  0  0  0
   -2.3334    2.0618    1.8000 O   0  0  0  0  0  0  0  0  0  0  0  0
   -3.8515    3.3774    0.9411 O   0  0  0  0  0  0  0  0  0  0  0  0
   -4.5649    0.1800    1.3950 C   0  0  0  0  0  0  0  0  0  0  0  0
   -4.2762   -1.3029    0.8745 C   0  0  1  0  0  0  0  0  0  0  0  0
   -5.8331   -1.6878    0.6176 C   0  0  0  0  0  0  0  0  0  0  0  0
   -5.7220   -2.6220   -0.5233 C   0  0  0  0  0  0  0  0  0  0  0  0
   -4.4075   -3.1797   -0.8855 C   0  0  0  0  0  0  0  0  0  0  0  0
   -3.2975   -2.1730   -1.1299 C   0  0  0  0  0  0  0  0  0  0  0  0
   -4.0679   -0.7956   -0.7236 C   0  0  2  0  0  0  0  0  0  0  0  0
  1  2  1  0
  2  3  1  0
  3  4  1  0
  4  5  2  0
  4  6  1  0
  6  7  1  6
  7  8  1  0
  8  9  1  0
  9 10  2  0
 10 11  1  0
 11 12  2  0
 12 13  1  0
 13 14  2  0
  6 15  1  0
 15 16  1  0
 16 17  1  6
 16 18  1  0
 18 19  2  0
 18 20  1  0
 20 21  1  0
 21 22  1  1
 22 23  2  0
 22 24  1  0
 21 25  1  0
 26 25  1  1
 26 27  1  0
 27 28  1  0
 28 29  1  0
 29 30  1  0
 31 30  1  6
 14  9  1  0
 31 20  1  0
 31 26  1  0
M  END
>  <zinc_id>  (1) 
ZINC000001853205

>  <smiles>  (1) 
CCOC(=O)[C@H](CCc1ccccc1)N[C@@H](C)C(=O)N1[C@H](C(=O)O)C[C@H]2CCCC[C@@H]21

$$$$
