
     RDKit          3D

  9  9  0  0  0  0  0  0  0  0999 V2000
   -1.9470    1.5130   -0.1308 N   0  0  0  0  0  0  0  0  0  0  0  0
   -0.8047    0.6372   -0.0548 C   0  0  0  0  0  0  0  0  0  0  0  0
    0.4370    1.1549   -0.0669 N   0  0  0  0  0  0  0  0  0  0  0  0
    1.5100    0.3483    0.0034 C   0  0  0  0  0  0  0  0  0  0  0  0
    2.6896    0.8303   -0.0075 O   0  0  0  0  0  0  0  0  0  0  0  0
    1.3140   -0.9745    0.0852 N   0  0  0  0  0  0  0  0  0  0  0  0
    0.0964   -1.5320    0.1004 C   0  0  0  0  0  0  0  0  0  0  0  0
   -1.0130   -0.7249    0.0294 C   0  0  0  0  0  0  0  0  0  0  0  0
   -2.2824   -1.2522    0.0417 F   0  0  0  0  0  0  0  0  0  0  0  0
  1  2  1  0
  2  3  2  0
  3  4  1  0
  4  5  2  0
  4  6  1  0
  6  7  1  0
  7  8  2  0
  8  9  1  0
  8  2  1  0
M  END
>  <zinc_id>  (1) 
ZINC000000896546

>  <smiles>  (1) 
Nc1nc(=O)[nH]cc1F

$$$$
