
     RDKit          3D

 15 15  0  0  0  0  0  0  0  0999 V2000
   -3.7589    0.7229   -0.3166 C   0  0  0  0  0  0  0  0  0  0  0  0
   -2.3604    1.0606   -0.1229 C   0  0  0  0  0  0  0  0  0  0  0  0
   -1.5777   -0.2272   -0.7695 C   0  0  2  0  0  0  0  0  0  0  0  0
   -2.2721   -1.2833    0.2692 C   0  0  0  0  0  0  0  0  0  0  0  0
   -0.2210   -0.0322    0.1272 C   0  0  0  0  0  0  0  0  0  0  0  0
   -0.3822   -0.0980    1.4855 C   0  0  0  0  0  0  0  0  0  0  0  0
   -1.1275    0.6262    2.4509 C   0  0  0  0  0  0  0  0  0  0  0  0
    0.5501   -1.2615   -0.2600 C   0  0  0  0  0  0  0  0  0  0  0  0
    0.0382   -2.2865   -0.7590 O   0  0  0  0  0  0  0  0  0  0  0  0
    1.9714   -1.3036   -0.0602 N   0  0  0  0  0  0  0  0  0  0  0  0
    2.6998   -0.0813   -0.0887 C   0  0  0  0  0  0  0  0  0  0  0  0
    3.9466   -0.0127    0.0757 O   0  0  0  0  0  0  0  0  0  0  0  0
    1.9220    1.0990   -0.3200 N   0  0  0  0  0  0  0  0  0  0  0  0
    0.5146    1.0768   -0.5113 C   0  0  0  0  0  0  0  0  0  0  0  0
    0.0570    2.0009   -1.2002 O   0  0  0  0  0  0  0  0  0  0  0  0
  1  2  1  0
  2  3  1  0
  3  4  1  1
  3  5  1  0
  5  6  1  0
  6  7  1  0
  5  8  1  0
  8  9  2  0
  8 10  1  0
 10 11  1  0
 11 12  2  0
 11 13  1  0
 13 14  1  0
 14 15  2  0
 14  5  1  0
M  END
>  <zinc_id>  (1) 
ZINC000000968345

>  <smiles>  (1) 
CC[C@H](C)C1(CC)C(=O)NC(=O)NC1=O

$$$$
