
     RDKit          3D

 18 20  0  0  0  0  0  0  0  0999 V2000
    4.9957    0.5286    2.1027 C   0  0  0  0  0  0  0  0  0  0  0  0
    3.6280    0.8126    2.3917 N   0  0  0  0  0  0  0  0  0  0  0  0
    2.9346   -0.1668    1.3308 C   0  0  2  0  0  0  0  0  0  0  0  0
    3.6149    0.6503    0.0414 C   0  0  0  0  0  0  0  0  0  0  0  0
    3.0938   -0.2062   -1.0901 C   0  0  0  0  0  0  0  0  0  0  0  0
    1.6051   -0.3083   -1.0691 C   0  0  0  0  0  0  0  0  0  0  0  0
    0.6969   -0.7863   -1.9666 N   0  0  0  0  0  0  0  0  0  0  0  0
   -0.5614   -0.6579   -1.4770 C   0  0  0  0  0  0  0  0  0  0  0  0
   -1.8177   -0.9612   -1.9343 C   0  0  0  0  0  0  0  0  0  0  0  0
   -2.8928   -0.6746   -1.1294 C   0  0  0  0  0  0  0  0  0  0  0  0
   -2.8021   -0.0987    0.1179 C   0  0  0  0  0  0  0  0  0  0  0  0
   -3.9960    0.1841    0.9345 C   0  0  0  0  0  0  0  0  0  0  0  0
   -3.8982    0.7677    2.2197 N   0  0  0  0  0  0  0  0  0  0  0  0
   -5.1477   -0.0885    0.5082 O   0  0  0  0  0  0  0  0  0  0  0  0
   -1.5263    0.1954    0.5527 C   0  0  0  0  0  0  0  0  0  0  0  0
   -0.4211   -0.0799   -0.2328 C   0  0  0  0  0  0  0  0  0  0  0  0
    0.9364    0.1453    0.0361 C   0  0  0  0  0  0  0  0  0  0  0  0
    1.5578    0.7444    1.2414 C   0  0  0  0  0  0  0  0  0  0  0  0
  1  2  1  0
  3  2  1  1
  3  4  1  0
  4  5  1  0
  5  6  1  0
  6  7  1  0
  7  8  1  0
  8  9  2  0
  9 10  1  0
 10 11  2  0
 11 12  1  0
 12 13  1  0
 12 14  2  0
 11 15  1  0
 15 16  2  0
 16 17  1  0
 17 18  1  0
 18  3  1  0
 17  6  2  0
 16  8  1  0
M  END
>  <zinc_id>  (1) 
ZINC000000018635

>  <smiles>  (1) 
CN[C@@H]1CCc2[nH]c3ccc(C(N)=O)cc3c2C1

$$$$
