
     RDKit          3D

 24 27  0  0  0  0  0  0  0  0999 V2000
    7.8610    0.1421   -0.8712 C   0  0  0  0  0  0  0  0  0  0  0  0
    6.4633    0.3255   -0.6410 N   0  0  0  0  0  0  0  0  0  0  0  0
    5.7798   -0.9538   -0.3995 C   0  0  0  0  0  0  0  0  0  0  0  0
    4.3318   -0.7124   -0.1659 C   0  0  0  0  0  0  0  0  0  0  0  0
    3.4369   -0.7070   -1.2158 C   0  0  0  0  0  0  0  0  0  0  0  0
    2.0943   -0.4820   -0.9898 C   0  0  0  0  0  0  0  0  0  0  0  0
    1.5733   -0.2540    0.2670 C   0  0  0  0  0  0  0  0  0  0  0  0
    0.1514   -0.0180    0.4878 C   0  0  0  0  0  0  0  0  0  0  0  0
   -0.5104    0.2170    1.6297 N   0  0  0  0  0  0  0  0  0  0  0  0
   -1.8071    0.3830    1.4239 C   0  0  0  0  0  0  0  0  0  0  0  0
   -2.9258    0.6420    2.1891 C   0  0  0  0  0  0  0  0  0  0  0  0
   -4.1939    0.7601    1.6073 C   0  0  0  0  0  0  0  0  0  0  0  0
   -5.2674    1.0178    2.4152 F   0  0  0  0  0  0  0  0  0  0  0  0
   -4.3709    0.6214    0.2466 C   0  0  0  0  0  0  0  0  0  0  0  0
   -3.2664    0.3647   -0.5158 C   0  0  0  0  0  0  0  0  0  0  0  0
   -2.0206    0.2498    0.0593 C   0  0  0  0  0  0  0  0  0  0  0  0
   -0.7928    0.0000   -0.5178 C   0  0  0  0  0  0  0  0  0  0  0  0
   -0.4776   -0.2058   -1.9497 C   0  0  0  0  0  0  0  0  0  0  0  0
   -1.4426   -1.1390   -2.5834 C   0  0  0  0  0  0  0  0  0  0  0  0
   -2.7276   -0.4891   -2.8856 N   0  0  0  0  0  0  0  0  0  0  0  0
   -3.5712    0.2232   -1.9581 C   0  0  0  0  0  0  0  0  0  0  0  0
   -4.6126    0.7600   -2.3388 O   0  0  0  0  0  0  0  0  0  0  0  0
    2.4746   -0.2604    1.3166 C   0  0  0  0  0  0  0  0  0  0  0  0
    3.8203   -0.4852    1.0962 C   0  0  0  0  0  0  0  0  0  0  0  0
  1  2  1  0
  2  3  1  0
  3  4  1  0
  4  5  2  0
  5  6  1  0
  6  7  2  0
  7  8  1  0
  8  9  1  0
  9 10  1  0
 10 11  2  0
 11 12  1  0
 12 13  1  0
 12 14  2  0
 14 15  1  0
 15 16  2  0
 16 17  1  0
 17 18  1  0
 18 19  1  0
 19 20  1  0
 20 21  1  0
 21 22  2  0
  7 23  1  0
 23 24  2  0
 24  4  1  0
 17  8  2  0
 16 10  1  0
 21 15  1  0
M  END
>  <zinc_id>  (1) 
ZINC000000025958

>  <smiles>  (1) 
CNCc1ccc(-c2[nH]c3cc(F)cc4c3c2CCNC4=O)cc1

$$$$
