
     RDKit          2D

  6  5  0  0  0  0  0  0  0  0999 V2000
    1.5000    1.2990    0.0000 C   0  0  0  0  0  0  0  0  0  0  0  0
    0.7500    0.0000    0.0000 C   0  0  0  0  0  0  0  0  0  0  0  0
    1.5000   -1.2990    0.0000 O   0  0  0  0  0  0  0  0  0  0  0  0
   -0.7500   -0.0000    0.0000 C   0  0  0  0  0  0  0  0  0  0  0  0
   -1.5000    1.2990    0.0000 O   0  0  0  0  0  0  0  0  0  0  0  0
   -1.5000   -1.2990    0.0000 O   0  0  0  0  0  0  0  0  0  0  0  0
  2  1  1  6
  2  3  1  0
  2  4  1  0
  4  5  2  0
  4  6  1  0
M  END
>  <zinc_id>  (1) 
ZINC000004658560

>  <smiles>  (1) 
C[C@H](O)C(=O)O

$$$$
