
     RDKit          3D

 13 15  0  0  0  0  0  0  0  0999 V2000
   -3.3504   -0.9668   -0.7398 C   0  0  0  0  0  0  0  0  0  0  0  0
   -2.0547    0.0007   -0.8471 C   0  0  2  0  0  0  0  0  0  0  0  0
   -1.1295   -1.0195   -0.3329 O   0  0  0  0  0  0  0  0  0  0  0  0
   -0.1884   -0.3234    0.3645 C   0  0  1  0  0  0  0  0  0  0  0  0
   -0.9143   -0.0229    1.6852 C   0  0  0  0  0  0  0  0  0  0  0  0
   -2.3661    0.7839    0.8988 S   0  0  0  0  0  0  0  0  0  0  0  0
    0.9714   -1.2128    0.6257 C   0  0  0  0  0  0  0  0  0  0  0  0
    2.1844   -0.6449    0.0469 N   0  0  0  0  0  0  0  0  0  0  0  0
    1.8863   -0.4191   -1.3703 C   0  0  0  0  0  0  0  0  0  0  0  0
    0.9325    0.7344   -1.5613 C   0  0  0  0  0  0  0  0  0  0  0  0
    0.2444    0.9669   -0.2268 C   0  0  0  0  0  0  0  0  0  0  0  0
    1.3060    1.5504    0.7178 C   0  0  0  0  0  0  0  0  0  0  0  0
    2.4785    0.5732    0.7393 C   0  0  0  0  0  0  0  0  0  0  0  0
  2  1  1  1
  2  3  1  0
  3  4  1  0
  4  5  1  1
  5  6  1  0
  4  7  1  0
  7  8  1  0
  8  9  1  0
  9 10  1  0
 10 11  1  0
 11 12  1  0
 12 13  1  0
  6  2  1  0
 13  8  1  0
 11  4  1  0
M  END
>  <zinc_id>  (1) 
ZINC000000010163

>  <smiles>  (1) 
C[C@@H]1O[C@@]2(CS1)CN1CCC2CC1

$$$$
