
     RDKit          3D

 11 10  0  0  0  0  0  0  0  0999 V2000
   -0.2833    1.8811   -1.0860 C   0  0  0  0  0  0  0  0  0  0  0  0
    0.2223    0.3225   -0.8627 C   0  0  2  0  0  0  0  0  0  0  0  0
   -0.5615    0.1860    0.5819 C   0  0  0  0  0  0  0  0  0  0  0  0
   -1.8844   -0.2462    0.2287 N   0  0  0  0  0  0  0  0  0  0  0  0
   -1.9070   -0.8482   -1.1019 C   0  0  0  0  0  0  0  0  0  0  0  0
   -2.3317   -1.2736    1.1537 C   0  0  0  0  0  0  0  0  0  0  0  0
   -2.7712    0.8965    0.2148 C   0  0  0  0  0  0  0  0  0  0  0  0
    1.5442    0.7779   -0.1838 O   0  0  0  0  0  0  0  0  0  0  0  0
    2.3650   -0.2634    0.2100 C   0  0  0  0  0  0  0  0  0  0  0  0
    3.5922    0.0188    0.8373 N   0  0  0  0  0  0  0  0  0  0  0  0
    2.0154   -1.4513    0.0080 O   0  0  0  0  0  0  0  0  0  0  0  0
  2  1  1  6
  2  3  1  0
  3  4  1  0
  4  5  1  0
  4  6  1  0
  4  7  1  0
  2  8  1  0
  8  9  1  0
  9 10  1  0
  9 11  2  0
M  CHG  1   4   1
M  END
>  <zinc_id>  (1) 
ZINC000003830314

>  <smiles>  (1) 
C[C@H](C[N+](C)(C)C)OC(N)=O

$$$$
