
     RDKit          3D

 20 22  0  0  0  0  0  0  0  0999 V2000
    4.7150   -1.2008    0.6579 C   0  0  0  0  0  0  0  0  0  0  0  0
    4.2848   -1.0263   -0.7183 N   0  0  0  0  0  0  0  0  0  0  0  0
    3.8361    0.3458   -0.9449 C   0  0  0  0  0  0  0  0  0  0  0  0
    2.5660    0.6333   -0.2071 C   0  0  0  0  0  0  0  0  0  0  0  0
    1.4836   -0.3027   -0.6816 C   0  0  0  0  0  0  0  0  0  0  0  0
    0.2232   -0.0285    0.0321 C   0  0  0  0  0  0  0  0  0  0  0  0
   -0.3691    1.2748   -0.0990 C   0  0  0  0  0  0  0  0  0  0  0  0
    0.5085    2.2075   -0.6396 C   0  0  0  0  0  0  0  0  0  0  0  0
    0.1708    3.5116   -0.8603 C   0  0  0  0  0  0  0  0  0  0  0  0
   -1.0963    3.9528   -0.5396 C   0  0  0  0  0  0  0  0  0  0  0  0
   -1.9942    3.0668   -0.0032 C   0  0  0  0  0  0  0  0  0  0  0  0
   -1.6209    1.7321    0.2123 C   0  0  0  0  0  0  0  0  0  0  0  0
   -2.7265    0.9747    0.7844 C   0  0  0  0  0  0  0  0  0  0  0  0
   -2.9049   -0.3196    0.9765 C   0  0  0  0  0  0  0  0  0  0  0  0
   -1.9465   -1.3657    0.6265 C   0  0  0  0  0  0  0  0  0  0  0  0
   -2.4898   -2.6224    0.7285 C   0  0  0  0  0  0  0  0  0  0  0  0
   -1.7171   -3.7307    0.4391 C   0  0  0  0  0  0  0  0  0  0  0  0
   -0.4045   -3.5870    0.0478 C   0  0  0  0  0  0  0  0  0  0  0  0
    0.1174   -2.3309   -0.0487 C   0  0  0  0  0  0  0  0  0  0  0  0
   -0.6356   -1.1848    0.2373 C   0  0  0  0  0  0  0  0  0  0  0  0
  1  2  1  0
  2  3  1  0
  3  4  1  0
  4  5  1  0
  5  6  1  0
  6  7  1  0
  7  8  2  0
  8  9  1  0
  9 10  2  0
 10 11  1  0
 11 12  2  0
 12 13  1  0
 13 14  2  0
 14 15  1  0
 15 16  2  0
 16 17  1  0
 17 18  2  0
 18 19  1  0
 19 20  2  0
 20  6  1  0
 12  7  1  0
 20 15  1  0
M  END
>  <zinc_id>  (1) 
ZINC000001530764

>  <smiles>  (1) 
CNCCCC1c2ccccc2C=Cc2ccccc21

$$$$
