
     RDKit          3D

 28 31  0  0  0  0  0  0  0  0999 V2000
    4.0629   -1.5215   -2.7167 C   0  0  0  0  0  0  0  0  0  0  0  0
    3.9375   -1.1980   -1.7834 C   0  0  0  0  0  0  0  0  0  0  0  0
    3.7394   -0.6868   -0.3878 C   0  0  2  0  0  0  0  0  0  0  0  0
    4.8942   -0.0110    0.0853 O   0  0  0  0  0  0  0  0  0  0  0  0
    5.4345    1.0977   -0.5080 C   0  0  0  0  0  0  0  0  0  0  0  0
    6.6577    1.7671    0.0407 C   0  0  0  0  0  0  0  0  0  0  0  0
    4.8666    1.5303   -1.5272 O   0  0  0  0  0  0  0  0  0  0  0  0
    3.6178   -1.8545    0.5851 C   0  0  0  0  0  0  0  0  0  0  0  0
    2.3006   -1.6752    1.3213 C   0  0  0  0  0  0  0  0  0  0  0  0
    1.5142   -1.2409   -0.0200 C   0  0  1  0  0  0  0  0  0  0  0  0
    0.3391   -0.3315    0.7572 C   0  0  2  0  0  0  0  0  0  0  0  0
   -0.5134   -1.6164    1.1853 C   0  0  0  0  0  0  0  0  0  0  0  0
   -1.6205   -0.8899    1.9653 C   0  0  0  0  0  0  0  0  0  0  0  0
   -2.3733   -0.2240    0.8137 C   0  0  0  0  0  0  0  0  0  0  0  0
   -3.5139   -0.7065    0.6388 C   0  0  0  0  0  0  0  0  0  0  0  0
   -4.5564   -0.2722   -0.4436 C   0  0  1  0  0  0  0  0  0  0  0  0
   -5.6635    0.0735    0.5614 O   0  0  0  0  0  0  0  0  0  0  0  0
   -6.8411    0.5276    0.0204 C   0  0  0  0  0  0  0  0  0  0  0  0
   -7.9745    0.8904    0.8818 C   0  0  0  0  0  0  0  0  0  0  0  0
   -6.8626    0.6021   -1.2245 O   0  0  0  0  0  0  0  0  0  0  0  0
   -4.0082    1.2670   -0.5948 C   0  0  0  0  0  0  0  0  0  0  0  0
   -2.6156    0.9819   -1.1983 C   0  0  0  0  0  0  0  0  0  0  0  0
   -1.6322    0.9110    0.0688 C   0  0  2  0  0  0  0  0  0  0  0  0
   -0.4978   -0.0929   -0.6886 C   0  0  1  0  0  0  0  0  0  0  0  0
    0.4372    1.1160   -1.1543 C   0  0  0  0  0  0  0  0  0  0  0  0
    1.8357    0.7089   -1.3140 C   0  0  0  0  0  0  0  0  0  0  0  0
    2.4890    0.0569   -0.1911 C   0  0  2  0  0  0  0  0  0  0  0  0
    2.5466    0.7909    1.0983 C   0  0  0  0  0  0  0  0  0  0  0  0
  1  2  3  0
  3  2  1  6
  3  4  1  0
  4  5  1  0
  5  6  1  0
  5  7  2  0
  3  8  1  0
  8  9  1  0
 10  9  1  1
 10 11  1  0
 11 12  1  1
 12 13  1  0
 13 14  1  0
 14 15  2  0
 15 16  1  0
 16 17  1  1
 17 18  1  0
 18 19  1  0
 18 20  2  0
 16 21  1  0
 21 22  1  0
 23 22  1  6
 23 24  1  0
 24 25  1  6
 25 26  1  0
 26 27  1  0
 27 28  1  1
 27  3  1  0
 27 10  1  0
 24 11  1  0
 23 14  1  0
M  END
>  <zinc_id>  (1) 
ZINC000003876023

>  <smiles>  (1) 
C#C[C@]1(OC(C)=O)CC[C@H]2[C@@H]3CCC4=C[C@@H](OC(C)=O)CC[C@@H]4[C@H]3CC[C@@]21C

$$$$
