
     RDKit          3D

 21 22  0  0  0  0  0  0  0  0999 V2000
    5.7034    0.8442   -0.3782 C   0  0  0  0  0  0  0  0  0  0  0  0
    4.8453   -0.2364   -0.0746 N   0  0  0  0  0  0  0  0  0  0  0  0
    4.7422   -0.3675    1.3815 C   0  0  0  0  0  0  0  0  0  0  0  0
    3.5449    0.0844   -0.6495 C   0  0  0  0  0  0  0  0  0  0  0  0
    2.6223   -1.0558   -0.3345 C   0  0  0  0  0  0  0  0  0  0  0  0
    1.3243   -0.8409   -0.8527 O   0  0  0  0  0  0  0  0  0  0  0  0
    0.6218    0.2436   -0.4398 C   0  0  0  0  0  0  0  0  0  0  0  0
    1.0926    1.0197    0.3598 O   0  0  0  0  0  0  0  0  0  0  0  0
   -0.8022    0.3782   -1.0807 C   0  0  1  0  0  0  0  0  0  0  0  0
   -1.4250   -0.9876   -0.5821 C   0  0  0  0  0  0  0  0  0  0  0  0
   -2.5409   -1.4521   -1.2053 C   0  0  0  0  0  0  0  0  0  0  0  0
   -3.1569   -2.6318   -0.8422 C   0  0  0  0  0  0  0  0  0  0  0  0
   -2.5799   -3.3424    0.2082 C   0  0  0  0  0  0  0  0  0  0  0  0
   -1.4583   -2.8751    0.8342 C   0  0  0  0  0  0  0  0  0  0  0  0
   -0.8935   -1.6929    0.4242 C   0  0  0  0  0  0  0  0  0  0  0  0
   -1.4819    1.3050    0.0944 C   0  0  0  0  0  0  0  0  0  0  0  0
   -1.4324    0.6393    1.2624 O   0  0  0  0  0  0  0  0  0  0  0  0
   -2.8670    1.6270   -0.4035 C   0  0  0  0  0  0  0  0  0  0  0  0
   -3.1892    3.0075    0.0962 C   0  0  0  0  0  0  0  0  0  0  0  0
   -1.8487    3.6885    0.3422 C   0  0  0  0  0  0  0  0  0  0  0  0
   -0.8210    2.6452    0.0412 C   0  0  0  0  0  0  0  0  0  0  0  0
  1  2  1  0
  2  3  1  0
  2  4  1  0
  4  5  1  0
  5  6  1  0
  6  7  1  0
  7  8  2  0
  9  7  1  0
  9 10  1  0
 10 11  2  0
 11 12  1  0
 12 13  2  0
 13 14  1  0
 14 15  2  0
  9 16  1  1
 16 17  1  0
 16 18  1  0
 18 19  1  0
 19 20  1  0
 20 21  1  0
 15 10  1  0
 21 16  1  0
M  END
>  <zinc_id>  (1) 
ZINC000000155531

>  <smiles>  (1) 
CN(C)CCOC(=O)[C@@H](c1ccccc1)C1(O)CCCC1

$$$$
