
     RDKit          3D

 22 24  0  0  0  0  0  0  0  0999 V2000
    6.0830    0.4184    0.3455 C   0  0  0  0  0  0  0  0  0  0  0  0
    5.7128   -0.1646   -1.0077 C   0  0  0  0  0  0  0  0  0  0  0  0
    4.4159   -0.7230   -0.8755 O   0  0  0  0  0  0  0  0  0  0  0  0
    3.3051    0.0175   -0.5171 C   0  0  0  0  0  0  0  0  0  0  0  0
    3.4732    1.2382   -0.3032 O   0  0  0  0  0  0  0  0  0  0  0  0
    2.0050   -0.6276   -0.4017 C   0  0  0  0  0  0  0  0  0  0  0  0
    1.7047   -1.9240   -0.6058 N   0  0  0  0  0  0  0  0  0  0  0  0
    0.3884   -2.1360   -0.4003 C   0  0  0  0  0  0  0  0  0  0  0  0
   -0.1842   -0.9797   -0.0597 N   0  0  0  0  0  0  0  0  0  0  0  0
    0.7838   -0.0440   -0.0539 C   0  0  0  0  0  0  0  0  0  0  0  0
    0.7259    1.3916    0.2470 C   0  0  0  0  0  0  0  0  0  0  0  0
   -0.4525    2.0816   -0.0826 N   0  0  0  0  0  0  0  0  0  0  0  0
   -0.2531    3.4066   -0.6778 C   0  0  0  0  0  0  0  0  0  0  0  0
   -1.8061    1.6799    0.0790 C   0  0  0  0  0  0  0  0  0  0  0  0
   -2.6946    2.5947    0.0301 O   0  0  0  0  0  0  0  0  0  0  0  0
   -2.3147    0.3271    0.2978 C   0  0  0  0  0  0  0  0  0  0  0  0
   -3.6663    0.2990    0.5930 C   0  0  0  0  0  0  0  0  0  0  0  0
   -4.2737   -0.9240    0.8224 C   0  0  0  0  0  0  0  0  0  0  0  0
   -5.6005   -0.9490    1.1120 F   0  0  0  0  0  0  0  0  0  0  0  0
   -3.5670   -2.1029    0.7635 C   0  0  0  0  0  0  0  0  0  0  0  0
   -2.2104   -2.0404    0.4644 C   0  0  0  0  0  0  0  0  0  0  0  0
   -1.5748   -0.8394    0.2306 C   0  0  0  0  0  0  0  0  0  0  0  0
  1  2  1  0
  2  3  1  0
  3  4  1  0
  4  5  2  0
  4  6  1  0
  6  7  1  0
  7  8  2  0
  8  9  1  0
  9 10  1  0
 10 11  1  0
 11 12  1  0
 12 13  1  0
 12 14  1  0
 14 15  2  0
 14 16  1  0
 16 17  2  0
 17 18  1  0
 18 19  1  0
 18 20  2  0
 20 21  1  0
 21 22  2  0
 10  6  2  0
 22 16  1  0
 22  9  1  0
M  END
>  <zinc_id>  (1) 
ZINC000000001464

>  <smiles>  (1) 
CCOC(=O)c1ncn2c1CN(C)C(=O)c1cc(F)ccc1-2

$$$$
