
     RDKit          3D

 20 22  0  0  0  0  0  0  0  0999 V2000
   -1.3435    1.2200   -0.2321 C   0  0  0  0  0  0  0  0  0  0  0  0
   -1.6272    0.6699   -0.2999 C   0  0  0  0  0  0  0  0  0  0  0  0
   -3.1734    0.6739   -0.4769 C   0  0  2  0  0  0  0  0  0  0  0  0
   -3.5253    1.3718    0.9439 C   0  0  0  0  0  0  0  0  0  0  0  0
   -4.8945    1.4775    1.0013 O   0  0  0  0  0  0  0  0  0  0  0  0
   -3.5592   -0.8609    0.1322 C   0  0  1  0  0  0  0  0  0  0  0  0
   -3.2187   -1.5723   -1.1455 O   0  0  0  0  0  0  0  0  0  0  0  0
   -2.1512   -1.1280    0.8776 C   0  0  0  0  0  0  0  0  0  0  0  0
   -1.1870   -0.8415   -0.3733 C   0  0  2  0  0  0  0  0  0  0  0  0
    0.1232   -0.8205    0.3562 N   0  0  0  0  0  0  0  0  0  0  0  0
    0.3340   -1.3520    1.5475 C   0  0  0  0  0  0  0  0  0  0  0  0
    1.6501   -1.1615    1.9100 N   0  0  0  0  0  0  0  0  0  0  0  0
    2.2330   -0.5009    0.9085 C   0  0  0  0  0  0  0  0  0  0  0  0
    1.2621   -0.2973   -0.0527 C   0  0  0  0  0  0  0  0  0  0  0  0
    1.5857    0.3343   -1.1484 N   0  0  0  0  0  0  0  0  0  0  0  0
    2.7906    0.8239   -1.4577 C   0  0  0  0  0  0  0  0  0  0  0  0
    3.0397    1.5033   -2.6923 N   0  0  0  0  0  0  0  0  0  0  0  0
    3.7491    0.6357   -0.5340 N   0  0  0  0  0  0  0  0  0  0  0  0
    3.5117   -0.0031    0.6248 C   0  0  0  0  0  0  0  0  0  0  0  0
    4.4008   -0.1722    1.4705 O   0  0  0  0  0  0  0  0  0  0  0  0
  1  2  2  0
  2  3  1  0
  3  4  1  1
  4  5  1  0
  3  6  1  0
  6  7  1  6
  6  8  1  0
  8  9  1  0
  9 10  1  1
 10 11  1  0
 11 12  2  0
 12 13  1  0
 13 14  2  0
 14 15  1  0
 15 16  2  0
 16 17  1  0
 16 18  1  0
 18 19  1  0
 19 20  2  0
  9  2  1  0
 14 10  1  0
 19 13  1  0
M  END
>  <zinc_id>  (1) 
ZINC000003802690

>  <smiles>  (1) 
C=C1[C@@H](n2cnc3c(=O)[nH]c(N)nc32)C[C@H](O)[C@H]1CO

$$$$
