
     RDKit          3D

 24 27  0  0  0  0  0  0  0  0999 V2000
   -5.4024    1.0184    0.3912 O   0  0  0  0  0  0  0  0  0  0  0  0
   -4.3541    1.6741    0.4107 C   0  0  0  0  0  0  0  0  0  0  0  0
   -4.4469    3.0508    0.5352 O   0  0  0  0  0  0  0  0  0  0  0  0
   -3.0434    1.0165    0.3049 C   0  0  0  0  0  0  0  0  0  0  0  0
   -2.9429   -0.3519    0.1808 C   0  0  0  0  0  0  0  0  0  0  0  0
   -1.7552   -0.9864    0.0816 N   0  0  0  0  0  0  0  0  0  0  0  0
   -1.7132   -2.4511   -0.0488 C   0  0  0  0  0  0  0  0  0  0  0  0
   -2.5885   -3.1839    0.9097 C   0  0  0  0  0  0  0  0  0  0  0  0
   -2.8848   -3.1736   -0.5963 C   0  0  0  0  0  0  0  0  0  0  0  0
   -0.6169   -0.2664    0.1035 C   0  0  0  0  0  0  0  0  0  0  0  0
    0.6089   -0.9001    0.0029 C   0  0  0  0  0  0  0  0  0  0  0  0
    1.7957   -0.1660    0.0242 C   0  0  0  0  0  0  0  0  0  0  0  0
    3.0621   -0.7911   -0.0771 N   0  0  0  0  0  0  0  0  0  0  0  0
    3.8863   -0.4009   -1.1984 C   0  0  0  0  0  0  0  0  0  0  0  0
    5.2396   -0.0382   -0.6213 C   0  0  0  0  0  0  0  0  0  0  0  0
    5.8079   -1.2330   -0.0654 N   0  0  0  0  0  0  0  0  0  0  0  0
    5.0329   -1.8338    0.9722 C   0  0  0  0  0  0  0  0  0  0  0  0
    3.5682   -1.7557    0.8285 C   0  0  0  0  0  0  0  0  0  0  0  0
    1.7336    1.2058    0.1473 C   0  0  0  0  0  0  0  0  0  0  0  0
    2.9098    1.8933    0.1649 F   0  0  0  0  0  0  0  0  0  0  0  0
    0.5137    1.8732    0.2505 C   0  0  0  0  0  0  0  0  0  0  0  0
   -0.6289    1.1045    0.2246 C   0  0  0  0  0  0  0  0  0  0  0  0
   -1.8696    1.7268    0.3246 C   0  0  0  0  0  0  0  0  0  0  0  0
   -1.9118    2.9688    0.4355 O   0  0  0  0  0  0  0  0  0  0  0  0
  1  2  2  0
  2  3  1  0
  2  4  1  0
  4  5  2  0
  5  6  1  0
  6  7  1  0
  7  8  1  0
  8  9  1  0
  6 10  1  0
 10 11  2  0
 11 12  1  0
 12 13  1  0
 13 14  1  0
 14 15  1  0
 15 16  1  0
 16 17  1  0
 17 18  1  0
 12 19  2  0
 19 20  1  0
 19 21  1  0
 21 22  2  0
 22 23  1  0
 23 24  2  0
 23  4  1  0
  9  7  1  0
 22 10  1  0
 18 13  1  0
M  END
>  <zinc_id>  (1) 
ZINC000000020220

>  <smiles>  (1) 
O=C(O)c1cn(C2CC2)c2cc(N3CCNCC3)c(F)cc2c1=O

$$$$
