
     RDKit          3D

 25 26  0  0  0  0  0  0  0  0999 V2000
    7.9183   -1.9642    0.1535 C   0  0  0  0  0  0  0  0  0  0  0  0
    7.5798   -1.3950   -1.1813 C   0  0  0  0  0  0  0  0  0  0  0  0
    7.5247    0.1136   -1.1537 C   0  0  0  0  0  0  0  0  0  0  0  0
    6.4780    0.6235   -0.1760 C   0  0  0  0  0  0  0  0  0  0  0  0
    5.1494    0.0487   -0.6710 C   0  0  0  0  0  0  0  0  0  0  0  0
    4.1279    0.4842    0.1950 O   0  0  0  0  0  0  0  0  0  0  0  0
    2.8326    0.0717   -0.0777 C   0  0  0  0  0  0  0  0  0  0  0  0
    2.5205   -0.6514   -1.0296 O   0  0  0  0  0  0  0  0  0  0  0  0
    1.8291    0.5229    0.8062 N   0  0  0  0  0  0  0  0  0  0  0  0
    0.4525    0.2014    0.6826 C   0  0  0  0  0  0  0  0  0  0  0  0
   -0.0710   -0.5675   -0.2832 N   0  0  0  0  0  0  0  0  0  0  0  0
   -1.4167   -0.8229   -0.3203 C   0  0  0  0  0  0  0  0  0  0  0  0
   -1.9252   -1.5378   -1.2131 O   0  0  0  0  0  0  0  0  0  0  0  0
   -2.2378   -0.3176    0.5967 N   0  0  0  0  0  0  0  0  0  0  0  0
   -3.7430   -0.6345    0.5485 C   0  0  2  0  0  0  0  0  0  0  0  0
   -3.8383   -0.7468   -0.9284 O   0  0  0  0  0  0  0  0  0  0  0  0
   -5.3073   -0.3701   -0.9257 C   0  0  2  0  0  0  0  0  0  0  0  0
   -5.3899   -0.3727   -2.5739 C   0  0  0  0  0  0  0  0  0  0  0  0
   -4.6706    1.1978   -0.9090 C   0  0  1  0  0  0  0  0  0  0  0  0
   -5.9863    1.8472   -0.6891 O   0  0  0  0  0  0  0  0  0  0  0  0
   -4.1795    1.0028    0.6813 C   0  0  1  0  0  0  0  0  0  0  0  0
   -5.4844    0.6250    1.2904 O   0  0  0  0  0  0  0  0  0  0  0  0
   -1.7992    0.4418    1.5691 C   0  0  0  0  0  0  0  0  0  0  0  0
   -0.4206    0.7087    1.6147 C   0  0  0  0  0  0  0  0  0  0  0  0
    0.0569    1.4911    2.6109 F   0  0  0  0  0  0  0  0  0  0  0  0
  1  2  1  0
  2  3  1  0
  3  4  1  0
  4  5  1  0
  5  6  1  0
  6  7  1  0
  7  8  2  0
  7  9  1  0
  9 10  1  0
 10 11  2  0
 11 12  1  0
 12 13  2  0
 12 14  1  0
 15 14  1  6
 15 16  1  0
 16 17  1  0
 17 18  1  6
 17 19  1  0
 19 20  1  1
 19 21  1  0
 21 22  1  1
 14 23  1  0
 23 24  2  0
 24 25  1  0
 24 10  1  0
 21 15  1  0
M  END
>  <zinc_id>  (1) 
ZINC000003806413

>  <smiles>  (1) 
CCCCCOC(=O)Nc1nc(=O)n([C@@H]2O[C@H](C)[C@@H](O)[C@H]2O)cc1F

$$$$
