
     RDKit          3D

 17 17  0  0  0  0  0  0  0  0999 V2000
    5.8605    1.1269   -1.0781 C   0  0  0  0  0  0  0  0  0  0  0  0
    4.6585    2.0430   -0.9553 C   0  0  0  0  0  0  0  0  0  0  0  0
    3.3851    1.2612   -0.8435 C   0  0  0  0  0  0  0  0  0  0  0  0
    3.4186    0.3934    0.3432 N   0  0  0  0  0  0  0  0  0  0  0  0
    2.3007   -0.4309    0.6264 C   0  0  0  0  0  0  0  0  0  0  0  0
    2.3557   -1.4409    1.6023 O   0  0  0  0  0  0  0  0  0  0  0  0
    1.2171   -0.2191   -0.0516 N   0  0  0  0  0  0  0  0  0  0  0  0
   -0.1339   -1.2273    0.3020 S   0  0  0  0  0  0  0  0  0  0  0  0
   -0.0682   -1.6512    1.7406 O   0  0  0  0  0  0  0  0  0  0  0  0
   -0.0516   -2.4257   -0.6076 O   0  0  0  0  0  0  0  0  0  0  0  0
   -1.6487   -0.4418    0.0381 C   0  0  0  0  0  0  0  0  0  0  0  0
   -2.2336   -0.5348   -1.2051 C   0  0  0  0  0  0  0  0  0  0  0  0
   -3.4380    0.0561   -1.5117 C   0  0  0  0  0  0  0  0  0  0  0  0
   -4.1082    0.7748   -0.5596 C   0  0  0  0  0  0  0  0  0  0  0  0
   -5.6557    1.5569   -0.8879 Cl  0  0  0  0  0  0  0  0  0  0  0  0
   -3.5340    0.8771    0.6925 C   0  0  0  0  0  0  0  0  0  0  0  0
   -2.3244    0.2822    0.9964 C   0  0  0  0  0  0  0  0  0  0  0  0
  1  2  1  0
  2  3  1  0
  3  4  1  0
  4  5  1  0
  5  6  1  0
  5  7  2  0
  7  8  1  0
  8  9  2  0
  8 10  2  0
  8 11  1  0
 11 12  2  0
 12 13  1  0
 13 14  2  0
 14 15  1  0
 14 16  1  0
 16 17  2  0
 17 11  1  0
M  END
>  <zinc_id>  (1) 
ZINC000001530599

>  <smiles>  (1) 
CCCN/C(O)=N/S(=O)(=O)c1ccc(Cl)cc1

$$$$
