
     RDKit          3D

 19 21  0  0  0  0  0  0  0  0999 V2000
    5.6801    0.7417    0.1782 C   0  0  0  0  0  0  0  0  0  0  0  0
    4.3113    0.2577    0.1882 C   0  0  0  0  0  0  0  0  0  0  0  0
    3.9214   -0.6047   -0.8118 C   0  0  0  0  0  0  0  0  0  0  0  0
    2.6246   -1.0500   -0.7899 C   0  0  0  0  0  0  0  0  0  0  0  0
    1.6961   -0.6669    0.1957 C   0  0  0  0  0  0  0  0  0  0  0  0
    0.4212   -1.2991    0.0507 C   0  0  0  0  0  0  0  0  0  0  0  0
   -0.6800   -0.6513    0.0568 C   0  0  0  0  0  0  0  0  0  0  0  0
   -1.0060    0.7090    0.1832 C   0  0  0  0  0  0  0  0  0  0  0  0
   -0.1988    1.6508    0.4344 O   0  0  0  0  0  0  0  0  0  0  0  0
   -2.4622    0.8867   -0.0257 C   0  0  2  0  0  0  0  0  0  0  0  0
   -2.8653    2.1862   -0.5747 C   0  0  0  0  0  0  0  0  0  0  0  0
   -3.2117    0.3738    1.1388 C   0  0  0  0  0  0  0  0  0  0  0  0
   -2.6416   -0.9281    1.3740 C   0  0  0  0  0  0  0  0  0  0  0  0
   -2.1020   -1.4557   -0.0890 C   0  0  1  0  0  0  0  0  0  0  0  0
   -2.7860   -0.2282   -0.9464 C   0  0  0  0  0  0  0  0  0  0  0  0
   -2.0323   -0.1938   -2.2470 C   0  0  0  0  0  0  0  0  0  0  0  0
   -4.2283   -0.5518   -1.0863 C   0  0  0  0  0  0  0  0  0  0  0  0
    2.1419    0.1829    1.1509 C   0  0  0  0  0  0  0  0  0  0  0  0
    3.4177    0.6409    1.1568 C   0  0  0  0  0  0  0  0  0  0  0  0
  1  2  1  0
  2  3  2  0
  3  4  1  0
  4  5  2  0
  5  6  1  0
  6  7  2  0
  7  8  1  0
  8  9  2  0
  8 10  1  0
 10 11  1  6
 10 12  1  0
 12 13  1  0
 14 13  1  1
 14 15  1  0
 15 16  1  0
 15 17  1  0
  5 18  1  0
 18 19  2  0
 19  2  1  0
 14  7  1  0
 15 10  1  0
M  END
>  <zinc_id>  (1) 
ZINC000002008310

>  <smiles>  (1) 
Cc1ccc(/C=C2\C(=O)[C@]3(C)CC[C@H]2C3(C)C)cc1

$$$$
