
     RDKit          3D

 24 26  0  0  0  0  0  0  0  0999 V2000
    3.7322    5.6763    1.0992 Cl  0  0  0  0  0  0  0  0  0  0  0  0
    3.1499    4.4870    0.5944 C   0  0  0  0  0  0  0  0  0  0  0  0
    3.8391    3.2930    0.5256 C   0  0  0  0  0  0  0  0  0  0  0  0
    3.2909    2.1004    0.0339 C   0  0  0  0  0  0  0  0  0  0  0  0
    2.0028    2.0712   -0.4138 C   0  0  0  0  0  0  0  0  0  0  0  0
    1.3052    0.8805   -0.9463 C   0  0  0  0  0  0  0  0  0  0  0  0
    0.0979    0.7818   -0.2101 O   0  0  0  0  0  0  0  0  0  0  0  0
   -0.5446   -0.4846   -0.8387 C   0  0  1  0  0  0  0  0  0  0  0  0
    0.7129   -1.4284   -0.3934 C   0  0  0  0  0  0  0  0  0  0  0  0
    0.3364   -2.7466   -0.9359 N   0  0  0  0  0  0  0  0  0  0  0  0
   -0.3528   -3.7022   -0.3109 C   0  0  0  0  0  0  0  0  0  0  0  0
   -0.4814   -4.7697   -1.2103 C   0  0  0  0  0  0  0  0  0  0  0  0
    0.1247   -4.4279   -2.3312 N   0  0  0  0  0  0  0  0  0  0  0  0
    0.6239   -3.2025   -2.1742 C   0  0  0  0  0  0  0  0  0  0  0  0
   -1.4482   -0.7223    0.4461 C   0  0  0  0  0  0  0  0  0  0  0  0
   -0.8961   -1.1886    1.5880 C   0  0  0  0  0  0  0  0  0  0  0  0
   -1.6774   -1.3534    2.7419 C   0  0  0  0  0  0  0  0  0  0  0  0
   -3.0336   -1.0104    2.6315 C   0  0  0  0  0  0  0  0  0  0  0  0
   -4.0337   -1.2093    4.0603 Cl  0  0  0  0  0  0  0  0  0  0  0  0
   -3.5477   -0.5413    1.4521 C   0  0  0  0  0  0  0  0  0  0  0  0
   -2.7845   -0.3784    0.3176 C   0  0  0  0  0  0  0  0  0  0  0  0
   -3.5238    0.2170   -1.1226 Cl  0  0  0  0  0  0  0  0  0  0  0  0
    1.2681    3.2415   -0.3667 C   0  0  0  0  0  0  0  0  0  0  0  0
    1.8398    4.4172    0.1285 C   0  0  0  0  0  0  0  0  0  0  0  0
  1  2  1  0
  2  3  2  0
  3  4  1  0
  4  5  2  0
  5  6  1  0
  6  7  1  0
  7  8  1  0
  8  9  1  1
  9 10  1  0
 10 11  1  0
 11 12  2  0
 12 13  1  0
 13 14  2  0
  8 15  1  0
 15 16  2  0
 16 17  1  0
 17 18  2  0
 18 19  1  0
 18 20  1  0
 20 21  2  0
 21 22  1  0
  5 23  1  0
 23 24  2  0
 24  2  1  0
 14 10  1  0
 21 15  1  0
M  END
>  <zinc_id>  (1) 
ZINC000000643055

>  <smiles>  (1) 
Clc1ccc(CO[C@@H](Cn2ccnc2)c2ccc(Cl)cc2Cl)cc1

$$$$
