
     RDKit          3D

 20 23  0  0  0  0  0  0  0  0999 V2000
   -1.8784    3.7005    1.2154 C   0  0  0  0  0  0  0  0  0  0  0  0
   -1.3698    3.0740    0.1499 N   0  0  0  0  0  0  0  0  0  0  0  0
   -2.3333    2.3426   -0.6324 C   0  0  0  0  0  0  0  0  0  0  0  0
   -2.2878    0.9177   -0.2409 C   0  0  0  0  0  0  0  0  0  0  0  0
   -0.9981    0.3501   -0.4708 N   0  0  0  0  0  0  0  0  0  0  0  0
   -1.0192   -1.0190   -0.2613 C   0  0  0  0  0  0  0  0  0  0  0  0
   -2.1689   -1.4002    0.3261 N   0  0  0  0  0  0  0  0  0  0  0  0
   -2.4563   -2.6763    0.6381 C   0  0  0  0  0  0  0  0  0  0  0  0
   -1.5257   -3.6427    0.3411 C   0  0  0  0  0  0  0  0  0  0  0  0
   -0.3177   -3.2916   -0.2689 C   0  0  0  0  0  0  0  0  0  0  0  0
   -0.1065   -1.9748   -0.5511 C   0  0  0  0  0  0  0  0  0  0  0  0
    1.2184   -1.7544   -1.1868 C   0  0  0  0  0  0  0  0  0  0  0  0
    1.8018   -0.5872   -0.4742 C   0  0  0  0  0  0  0  0  0  0  0  0
    3.0131   -1.0087    0.0931 C   0  0  0  0  0  0  0  0  0  0  0  0
    3.7552   -0.1286    0.8101 C   0  0  0  0  0  0  0  0  0  0  0  0
    3.3160    1.1553    0.9716 C   0  0  0  0  0  0  0  0  0  0  0  0
    2.1142    1.5425    0.3987 C   0  0  0  0  0  0  0  0  0  0  0  0
    1.3387    0.6803   -0.3321 C   0  0  0  0  0  0  0  0  0  0  0  0
    0.0602    1.3350   -0.8909 C   0  0  2  0  0  0  0  0  0  0  0  0
   -0.1558    2.3856    0.3654 C   0  0  0  0  0  0  0  0  0  0  0  0
  1  2  1  0
  2  3  1  0
  3  4  1  0
  4  5  1  0
  5  6  1  0
  6  7  2  0
  7  8  1  0
  8  9  2  0
  9 10  1  0
 10 11  2  0
 11 12  1  0
 12 13  1  0
 13 14  2  0
 14 15  1  0
 15 16  2  0
 16 17  1  0
 17 18  2  0
 18 19  1  0
 19 20  1  1
 20  2  1  0
 19  5  1  0
 11  6  1  0
 18 13  1  0
M  END
>  <zinc_id>  (1) 
ZINC000000000509

>  <smiles>  (1) 
CN1CCN2c3ncccc3Cc3ccccc3[C@@H]2C1

$$$$
