
     RDKit          3D

 40 39  0  0  0  0  0  0  0  0999 V2000
  -10.1812    4.6400   -0.0592 C   0  0  0  0  0  0  0  0  0  0  0  0
  -10.0185    3.1398   -0.2836 C   0  0  0  0  0  0  0  0  0  0  0  0
  -11.0436    2.6140   -1.2258 C   0  0  0  0  0  0  0  0  0  0  0  0
  -10.9918    3.1936   -2.5957 C   0  0  0  0  0  0  0  0  0  0  0  0
   -9.7004    2.8780   -3.2808 C   0  0  0  0  0  0  0  0  0  0  0  0
   -8.5319    3.4192   -2.5399 C   0  0  0  0  0  0  0  0  0  0  0  0
   -7.2125    3.1316   -3.1823 C   0  0  0  0  0  0  0  0  0  0  0  0
   -7.0650    1.6118   -3.2636 C   0  0  0  0  0  0  0  0  0  0  0  0
   -7.1188    1.0677   -1.8677 C   0  0  0  0  0  0  0  0  0  0  0  0
   -6.9719   -0.4455   -1.9487 C   0  0  0  0  0  0  0  0  0  0  0  0
   -7.0227   -1.0192   -0.5557 C   0  0  0  0  0  0  0  0  0  0  0  0
   -5.8836   -0.4287    0.2597 C   0  0  0  0  0  0  0  0  0  0  0  0
   -4.6911   -0.7552   -0.3436 O   0  0  0  0  0  0  0  0  0  0  0  0
   -4.5508   -2.1301   -0.4053 C   0  0  0  0  0  0  0  0  0  0  0  0
   -3.2360   -2.5187   -1.0703 C   0  0  0  0  0  0  0  0  0  0  0  0
   -3.1236   -3.8988   -1.1178 O   0  0  0  0  0  0  0  0  0  0  0  0
   -1.9326   -4.2402   -1.7202 C   0  0  0  0  0  0  0  0  0  0  0  0
   -0.7198   -3.7248   -1.0162 C   0  0  0  0  0  0  0  0  0  0  0  0
   -0.6011   -4.1870    0.2948 O   0  0  0  0  0  0  0  0  0  0  0  0
    0.5573   -3.6332    0.8175 C   0  0  0  0  0  0  0  0  0  0  0  0
    0.7306   -4.0985    2.2242 C   0  0  0  0  0  0  0  0  0  0  0  0
    1.8461   -3.6192    2.8581 O   0  0  0  0  0  0  0  0  0  0  0  0
    1.9430   -2.2594    2.9819 C   0  0  0  0  0  0  0  0  0  0  0  0
    1.9708   -1.4757    1.7224 C   0  0  0  0  0  0  0  0  0  0  0  0
    2.9837   -1.7197    0.8489 O   0  0  0  0  0  0  0  0  0  0  0  0
    4.2579   -1.4778    1.3042 C   0  0  0  0  0  0  0  0  0  0  0  0
    4.5961   -2.2995    2.4702 C   0  0  0  0  0  0  0  0  0  0  0  0
    5.8139   -2.1837    3.0415 O   0  0  0  0  0  0  0  0  0  0  0  0
    6.1963   -0.9695    3.5379 C   0  0  0  0  0  0  0  0  0  0  0  0
    7.5060   -1.0619    4.2346 C   0  0  0  0  0  0  0  0  0  0  0  0
    8.5406   -1.4683    3.4746 O   0  0  0  0  0  0  0  0  0  0  0  0
    8.8898   -0.6185    2.4927 C   0  0  0  0  0  0  0  0  0  0  0  0
    7.8505   -0.3192    1.4826 C   0  0  0  0  0  0  0  0  0  0  0  0
    8.2483    0.5513    0.4998 O   0  0  0  0  0  0  0  0  0  0  0  0
    8.6097    1.7558    1.1078 C   0  0  0  0  0  0  0  0  0  0  0  0
    9.0513    2.7283    0.0389 C   0  0  0  0  0  0  0  0  0  0  0  0
    7.9803    2.9208   -0.8318 O   0  0  0  0  0  0  0  0  0  0  0  0
    8.3277    3.8166   -1.8501 C   0  0  0  0  0  0  0  0  0  0  0  0
    7.1460    3.9959   -2.7659 C   0  0  0  0  0  0  0  0  0  0  0  0
    7.5510    4.9036   -3.7677 O   0  0  0  0  0  0  0  0  0  0  0  0
  1  2  1  0
  2  3  1  0
  3  4  1  0
  4  5  1  0
  5  6  1  0
  6  7  1  0
  7  8  1  0
  8  9  1  0
  9 10  1  0
 10 11  1  0
 11 12  1  0
 12 13  1  0
 13 14  1  0
 14 15  1  0
 15 16  1  0
 16 17  1  0
 17 18  1  0
 18 19  1  0
 19 20  1  0
 20 21  1  0
 21 22  1  0
 22 23  1  0
 23 24  1  0
 24 25  1  0
 25 26  1  0
 26 27  1  0
 27 28  1  0
 28 29  1  0
 29 30  1  0
 30 31  1  0
 31 32  1  0
 32 33  1  0
 33 34  1  0
 34 35  1  0
 35 36  1  0
 36 37  1  0
 37 38  1  0
 38 39  1  0
 39 40  1  0
M  END
>  <zinc_id>  (1) 
ZINC000008214662

>  <smiles>  (1) 
CCCCCCCCCCCCOCCOCCOCCOCCOCCOCCOCCOCCOCCO

$$$$
