
     RDKit          3D

 23 25  0  0  0  0  0  0  0  0999 V2000
    5.1365    0.4663    1.0662 C   0  0  0  0  0  0  0  0  0  0  0  0
    4.5143   -0.6067    0.6632 N   0  0  0  0  0  0  0  0  0  0  0  0
    5.3525   -1.7482    1.1031 C   0  0  0  0  0  0  0  0  0  0  0  0
    4.3968   -0.7604   -0.7678 C   0  0  0  0  0  0  0  0  0  0  0  0
    2.9366   -0.6375   -1.1430 C   0  0  0  0  0  0  0  0  0  0  0  0
    2.5315    0.4560    0.0915 C   0  0  1  0  0  0  0  0  0  0  0  0
    1.0996   -0.1839    0.2674 O   0  0  0  0  0  0  0  0  0  0  0  0
    0.1123    0.6664   -0.2349 C   0  0  0  0  0  0  0  0  0  0  0  0
    0.5693    1.7465   -0.8235 O   0  0  0  0  0  0  0  0  0  0  0  0
   -1.3702    0.4969   -0.1889 C   0  0  1  0  0  0  0  0  0  0  0  0
   -1.8666    0.9722   -1.4291 O   0  0  0  0  0  0  0  0  0  0  0  0
   -1.8838   -0.7676    0.1462 C   0  0  0  0  0  0  0  0  0  0  0  0
   -2.9698   -1.1568    0.8092 C   0  0  0  0  0  0  0  0  0  0  0  0
   -3.4304   -2.3412    1.1516 C   0  0  0  0  0  0  0  0  0  0  0  0
   -2.6178   -3.4190    0.7456 C   0  0  0  0  0  0  0  0  0  0  0  0
   -1.4948   -3.1606    0.0771 C   0  0  0  0  0  0  0  0  0  0  0  0
   -1.0661   -1.9085   -0.2500 C   0  0  0  0  0  0  0  0  0  0  0  0
   -1.9154    1.5859    0.8079 C   0  0  0  0  0  0  0  0  0  0  0  0
   -1.4282    2.9073    0.1754 C   0  0  0  0  0  0  0  0  0  0  0  0
   -2.5611    3.4100   -0.6440 C   0  0  0  0  0  0  0  0  0  0  0  0
   -3.7764    3.0741    0.2527 C   0  0  0  0  0  0  0  0  0  0  0  0
   -3.4368    1.6366    0.6588 C   0  0  0  0  0  0  0  0  0  0  0  0
    3.1682   -0.7278    1.1828 C   0  0  0  0  0  0  0  0  0  0  0  0
  1  2  1  0
  2  3  1  0
  2  4  1  0
  4  5  1  0
  5  6  1  0
  6  7  1  1
  7  8  1  0
  8  9  2  0
  8 10  1  0
 10 11  1  6
 10 12  1  0
 12 13  2  0
 13 14  1  0
 14 15  2  0
 15 16  1  0
 16 17  2  0
 10 18  1  0
 18 19  1  0
 19 20  1  0
 20 21  1  0
 21 22  1  0
  6 23  1  0
 23  2  1  0
 17 12  1  0
 22 18  1  0
M  CHG  1   2   1
M  END
>  <zinc_id>  (1) 
ZINC000000968301

>  <smiles>  (1) 
C[N+]1(C)CC[C@@H](OC(=O)[C@@](O)(c2ccccc2)C2CCCC2)C1

$$$$
