
     RDKit          3D

 23 24  0  0  0  0  0  0  0  0999 V2000
   -5.8492    0.7467    0.5718 N   0  0  0  0  0  0  0  0  0  0  0  0
   -4.2868    0.7164    0.8863 C   0  0  1  0  0  0  0  0  0  0  0  0
   -4.0369   -0.4017   -0.3051 C   0  0  0  0  0  0  0  0  0  0  0  0
   -2.6467   -0.7576   -0.3787 C   0  0  0  0  0  0  0  0  0  0  0  0
   -2.0198   -1.7475    0.3412 C   0  0  0  0  0  0  0  0  0  0  0  0
   -0.6779   -2.0072    0.1702 C   0  0  0  0  0  0  0  0  0  0  0  0
    0.2429   -3.5699    1.2892 I   0  0  0  0  0  0  0  0  0  0  0  0
    0.1061   -1.2891   -0.7299 C   0  0  0  0  0  0  0  0  0  0  0  0
    1.4406   -1.5234   -0.9191 O   0  0  0  0  0  0  0  0  0  0  0  0
    2.4315   -0.8912   -0.1912 C   0  0  0  0  0  0  0  0  0  0  0  0
    2.9027   -1.4429    0.9844 C   0  0  0  0  0  0  0  0  0  0  0  0
    3.8888   -0.8253    1.7189 C   0  0  0  0  0  0  0  0  0  0  0  0
    4.4616    0.3740    1.3271 C   0  0  0  0  0  0  0  0  0  0  0  0
    5.4493    1.0075    2.0484 O   0  0  0  0  0  0  0  0  0  0  0  0
    3.9952    0.9292    0.1546 C   0  0  0  0  0  0  0  0  0  0  0  0
    4.8546    2.7680   -0.4717 I   0  0  0  0  0  0  0  0  0  0  0  0
    3.0193    0.3060   -0.5608 C   0  0  0  0  0  0  0  0  0  0  0  0
   -0.5067   -0.2953   -1.4592 C   0  0  0  0  0  0  0  0  0  0  0  0
    0.5744    0.8562   -2.8878 I   0  0  0  0  0  0  0  0  0  0  0  0
   -1.8433   -0.0706   -1.2575 C   0  0  0  0  0  0  0  0  0  0  0  0
   -3.9328    2.0279    0.0953 C   0  0  0  0  0  0  0  0  0  0  0  0
   -2.7767    2.3947    0.2583 O   0  0  0  0  0  0  0  0  0  0  0  0
   -4.7903    2.6952   -0.6846 O   0  0  0  0  0  0  0  0  0  0  0  0
  2  1  1  6
  2  3  1  0
  3  4  1  0
  4  5  2  0
  5  6  1  0
  6  7  1  0
  6  8  2  0
  8  9  1  0
  9 10  1  0
 10 11  2  0
 11 12  1  0
 12 13  2  0
 13 14  1  0
 13 15  1  0
 15 16  1  0
 15 17  2  0
  8 18  1  0
 18 19  1  0
 18 20  2  0
  2 21  1  0
 21 22  2  0
 21 23  1  0
 20  4  1  0
 17 10  1  0
M  END
>  <zinc_id>  (1) 
ZINC000003830999

>  <smiles>  (1) 
N[C@@H](Cc1cc(I)c(Oc2ccc(O)c(I)c2)c(I)c1)C(=O)O

$$$$
