
     RDKit          3D

 32 32  0  0  0  0  0  0  0  0999 V2000
   -1.2634    6.3708   -0.4464 C   0  0  0  0  0  0  0  0  0  0  0  0
   -1.4101    6.2712   -0.2189 O   0  0  0  0  0  0  0  0  0  0  0  0
   -1.1933    5.3804    0.8315 C   0  0  0  0  0  0  0  0  0  0  0  0
   -0.9079    4.0275    0.2772 C   0  0  0  0  0  0  0  0  0  0  0  0
   -0.8917    3.8379   -0.9582 O   0  0  0  0  0  0  0  0  0  0  0  0
   -0.6517    2.9392    1.1348 N   0  0  0  0  0  0  0  0  0  0  0  0
   -0.3802    1.6493    0.5815 C   0  0  0  0  0  0  0  0  0  0  0  0
   -1.3480    0.7212    0.3109 C   0  0  0  0  0  0  0  0  0  0  0  0
   -3.3503    1.2041    0.7262 I   0  0  0  0  0  0  0  0  0  0  0  0
   -0.9923   -0.4972   -0.2226 C   0  0  0  0  0  0  0  0  0  0  0  0
   -1.9990   -1.5056   -0.5217 C   0  0  0  0  0  0  0  0  0  0  0  0
   -1.6045   -2.6181   -1.0163 O   0  0  0  0  0  0  0  0  0  0  0  0
   -3.3758   -1.3741   -0.3177 N   0  0  0  0  0  0  0  0  0  0  0  0
   -4.2727   -2.4878   -0.6715 C   0  0  0  0  0  0  0  0  0  0  0  0
   -5.7638   -1.9273   -0.2810 C   0  0  1  0  0  0  0  0  0  0  0  0
   -6.4756   -3.1929   -0.7166 O   0  0  0  0  0  0  0  0  0  0  0  0
   -5.6730   -2.3703    1.2951 C   0  0  0  0  0  0  0  0  0  0  0  0
   -4.9802   -3.5359    1.3883 O   0  0  0  0  0  0  0  0  0  0  0  0
    0.3396   -0.7535   -0.4726 C   0  0  0  0  0  0  0  0  0  0  0  0
    0.8794   -2.5987   -1.2807 I   0  0  0  0  0  0  0  0  0  0  0  0
    1.3372    0.1569   -0.2124 C   0  0  0  0  0  0  0  0  0  0  0  0
    2.7340   -0.1732   -0.4993 C   0  0  0  0  0  0  0  0  0  0  0  0
    3.1422    0.1274   -1.6514 O   0  0  0  0  0  0  0  0  0  0  0  0
    3.6282   -0.7807    0.3832 N   0  0  0  0  0  0  0  0  0  0  0  0
    3.0977   -1.0940    1.6726 C   0  0  0  0  0  0  0  0  0  0  0  0
    4.9478   -1.0628    0.0318 C   0  0  0  0  0  0  0  0  0  0  0  0
    5.0374   -2.5620   -0.6231 C   0  0  2  0  0  0  0  0  0  0  0  0
    4.5096   -3.2872    0.5986 O   0  0  0  0  0  0  0  0  0  0  0  0
    6.6127   -2.7899   -0.2173 C   0  0  0  0  0  0  0  0  0  0  0  0
    6.8377   -2.2185    0.9993 O   0  0  0  0  0  0  0  0  0  0  0  0
    0.9513    1.3692    0.3220 C   0  0  0  0  0  0  0  0  0  0  0  0
    2.4786    2.7747    0.7251 I   0  0  0  0  0  0  0  0  0  0  0  0
  1  2  1  0
  2  3  1  0
  3  4  1  0
  4  5  2  0
  4  6  1  0
  6  7  1  0
  7  8  2  0
  8  9  1  0
  8 10  1  0
 10 11  1  0
 11 12  2  0
 11 13  1  0
 13 14  1  0
 14 15  1  0
 15 16  1  6
 15 17  1  0
 17 18  1  0
 10 19  2  0
 19 20  1  0
 19 21  1  0
 21 22  1  0
 22 23  2  0
 22 24  1  0
 24 25  1  0
 24 26  1  0
 26 27  1  0
 27 28  1  1
 27 29  1  0
 29 30  1  0
 21 31  2  0
 31 32  1  0
 31  7  1  0
M  END
>  <zinc_id>  (1) 
ZINC000003830959

>  <smiles>  (1) 
COCC(=O)Nc1c(I)c(C(=O)NC[C@@H](O)CO)c(I)c(C(=O)N(C)C[C@H](O)CO)c1I

$$$$
