
     RDKit          3D

 17 16  0  0  0  0  0  0  0  0999 V2000
   -5.5889    0.2638   -0.9622 C   0  0  0  0  0  0  0  0  0  0  0  0
   -4.3463    0.1444   -1.8277 C   0  0  0  0  0  0  0  0  0  0  0  0
   -3.1585   -0.3334   -1.0606 C   0  0  0  0  0  0  0  0  0  0  0  0
   -3.4159   -1.6876   -0.4656 C   0  0  0  0  0  0  0  0  0  0  0  0
   -2.2726   -2.2460    0.3241 C   0  0  0  0  0  0  0  0  0  0  0  0
   -1.9106   -1.3783    1.4765 C   0  0  0  0  0  0  0  0  0  0  0  0
   -1.4967   -0.0155    1.0385 C   0  0  0  0  0  0  0  0  0  0  0  0
   -1.1476    0.7907    2.2934 C   0  0  0  0  0  0  0  0  0  0  0  0
   -0.7327    2.1727    1.7781 C   0  0  0  0  0  0  0  0  0  0  0  0
    0.4717    1.9091    0.8648 C   0  0  0  0  0  0  0  0  0  0  0  0
    1.5211    1.2517    1.7702 C   0  0  0  0  0  0  0  0  0  0  0  0
    2.7765    0.9253    1.0230 C   0  0  0  0  0  0  0  0  0  0  0  0
    2.4652    0.0456   -0.0094 O   0  0  0  0  0  0  0  0  0  0  0  0
    3.8482   -0.3478   -0.8754 S   0  0  0  0  0  0  0  0  0  0  0  0
    3.5979   -1.4767   -1.8074 O   0  0  0  0  0  0  0  0  0  0  0  0
    4.3788    0.8046   -1.6505 O   0  0  0  0  0  0  0  0  0  0  0  0
    5.0105   -0.8227    0.2611 O   0  0  0  0  0  0  0  0  0  0  0  0
  1  2  1  0
  2  3  1  0
  3  4  1  0
  4  5  1  0
  5  6  1  0
  6  7  1  0
  7  8  1  0
  8  9  1  0
  9 10  1  0
 10 11  1  0
 11 12  1  0
 12 13  1  0
 13 14  1  0
 14 15  2  0
 14 16  2  0
 14 17  1  0
M  END
>  <zinc_id>  (1) 
ZINC000001532179

>  <smiles>  (1) 
CCCCCCCCCCCCOS(=O)(=O)O

$$$$
