
     RDKit          3D

 22 24  0  0  0  0  0  0  0  0999 V2000
   -1.7967    3.9053    1.4236 C   0  0  0  0  0  0  0  0  0  0  0  0
   -1.3262    2.8843    0.4854 C   0  0  0  0  0  0  0  0  0  0  0  0
   -0.7707    1.6766    1.2532 C   0  0  0  0  0  0  0  0  0  0  0  0
   -0.2893    0.6688    0.3252 N   0  0  0  0  0  0  0  0  0  0  0  0
   -1.4280    0.1277   -0.3505 C   0  0  0  0  0  0  0  0  0  0  0  0
   -2.1645   -0.6303    0.7315 C   0  0  0  0  0  0  0  0  0  0  0  0
   -3.3680   -1.2559    0.0829 C   0  0  0  0  0  0  0  0  0  0  0  0
   -4.3385   -2.0119    0.6549 C   0  0  0  0  0  0  0  0  0  0  0  0
   -5.3090   -2.4897   -0.1185 C   0  0  0  0  0  0  0  0  0  0  0  0
   -5.2672   -2.1866   -1.4473 C   0  0  0  0  0  0  0  0  0  0  0  0
   -3.8462   -1.2298   -1.5508 S   0  0  0  0  0  0  0  0  0  0  0  0
    0.4887    1.5968   -0.6812 C   0  0  1  0  0  0  0  0  0  0  0  0
    1.5681    2.0768    0.4383 C   0  0  0  0  0  0  0  0  0  0  0  0
    2.9551    1.8391   -0.0652 C   0  0  0  0  0  0  0  0  0  0  0  0
    3.1158    0.3732    0.1010 C   0  0  0  0  0  0  0  0  0  0  0  0
    4.0403   -0.2557    0.8858 C   0  0  0  0  0  0  0  0  0  0  0  0
    4.9351    0.4967    1.6064 O   0  0  0  0  0  0  0  0  0  0  0  0
    4.0300   -1.6562    0.9184 C   0  0  0  0  0  0  0  0  0  0  0  0
    3.1080   -2.3466    0.1748 C   0  0  0  0  0  0  0  0  0  0  0  0
    2.1856   -1.6901   -0.6080 C   0  0  0  0  0  0  0  0  0  0  0  0
    2.1884   -0.3201   -0.6473 C   0  0  0  0  0  0  0  0  0  0  0  0
    1.2891    0.4278   -1.4444 C   0  0  0  0  0  0  0  0  0  0  0  0
  1  2  1  0
  2  3  1  0
  3  4  1  0
  4  5  1  0
  5  6  1  0
  6  7  1  0
  7  8  2  0
  8  9  1  0
  9 10  2  0
 10 11  1  0
 12  4  1  1
 12 13  1  0
 13 14  1  0
 14 15  1  0
 15 16  2  0
 16 17  1  0
 16 18  1  0
 18 19  2  0
 19 20  1  0
 20 21  2  0
 21 22  1  0
 11  7  1  0
 22 12  1  0
 21 15  1  0
M  END
>  <zinc_id>  (1) 
ZINC000000004028

>  <smiles>  (1) 
CCCN(CCc1cccs1)[C@H]1CCc2c(O)cccc2C1

$$$$
