
     RDKit          3D

 18 19  0  0  0  0  0  0  0  0999 V2000
    4.4451   -0.5756   -1.8842 C   0  0  0  0  0  0  0  0  0  0  0  0
    3.4882   -0.0689   -0.8336 C   0  0  0  0  0  0  0  0  0  0  0  0
    3.9760    0.6648    0.2232 C   0  0  0  0  0  0  0  0  0  0  0  0
    3.0583    1.1016    1.1519 C   0  0  0  0  0  0  0  0  0  0  0  0
    1.7161    0.8303    1.0489 C   0  0  0  0  0  0  0  0  0  0  0  0
    1.2614    0.0960   -0.0171 C   0  0  0  0  0  0  0  0  0  0  0  0
   -0.1258   -0.2252   -0.1890 N   0  0  0  0  0  0  0  0  0  0  0  0
   -1.1384    0.1854    0.7211 C   0  0  0  0  0  0  0  0  0  0  0  0
   -0.8622    0.9300    1.8480 C   0  0  0  0  0  0  0  0  0  0  0  0
   -1.8619    1.3142    2.7124 C   0  0  0  0  0  0  0  0  0  0  0  0
   -3.1626    0.9431    2.4390 C   0  0  0  0  0  0  0  0  0  0  0  0
   -3.4098    0.2031    1.3124 C   0  0  0  0  0  0  0  0  0  0  0  0
   -2.4367   -0.2000    0.4242 C   0  0  0  0  0  0  0  0  0  0  0  0
   -2.8190   -0.9757   -0.7263 C   0  0  0  0  0  0  0  0  0  0  0  0
   -4.0282   -1.2631   -0.8880 O   0  0  0  0  0  0  0  0  0  0  0  0
   -1.9208   -1.4332   -1.6834 O   0  0  0  0  0  0  0  0  0  0  0  0
    2.1469   -0.3590   -0.9671 C   0  0  0  0  0  0  0  0  0  0  0  0
    1.6735   -1.1679   -2.1483 C   0  0  0  0  0  0  0  0  0  0  0  0
  1  2  1  0
  2  3  2  0
  3  4  1  0
  4  5  2  0
  5  6  1  0
  6  7  1  0
  7  8  1  0
  8  9  2  0
  9 10  1  0
 10 11  2  0
 11 12  1  0
 12 13  2  0
 13 14  1  0
 14 15  2  0
 14 16  1  0
  6 17  2  0
 17 18  1  0
 17  2  1  0
 13  8  1  0
M  END
>  <zinc_id>  (1) 
ZINC000000020241

>  <smiles>  (1) 
Cc1cccc(Nc2ccccc2C(=O)O)c1C

$$$$
