
     RDKit          3D

 23 24  0  0  0  0  0  0  0  0999 V2000
    3.9923   -3.2298    1.7346 C   0  0  0  0  0  0  0  0  0  0  0  0
    3.7368   -2.2285    0.6648 C   0  0  0  0  0  0  0  0  0  0  0  0
    4.2369   -2.3077   -0.4787 O   0  0  0  0  0  0  0  0  0  0  0  0
    2.9001   -1.1701    0.9839 O   0  0  0  0  0  0  0  0  0  0  0  0
    2.6303   -0.1887   -0.0152 C   0  0  0  0  0  0  0  0  0  0  0  0
    1.6995    0.8680    0.5479 C   0  0  0  0  0  0  0  0  0  0  0  0
    0.4223    0.1656    0.9615 C   0  0  0  0  0  0  0  0  0  0  0  0
   -0.1564   -0.4832   -0.2773 C   0  0  0  0  0  0  0  0  0  0  0  0
   -1.3938   -1.1693    0.0996 N   0  0  0  0  0  0  0  0  0  0  0  0
   -1.4777   -2.4436    0.5100 C   0  0  0  0  0  0  0  0  0  0  0  0
   -2.7654   -2.6965    0.7576 N   0  0  0  0  0  0  0  0  0  0  0  0
   -3.4871   -1.5961    0.5070 C   0  0  0  0  0  0  0  0  0  0  0  0
   -4.8335   -1.3058    0.5920 C   0  0  0  0  0  0  0  0  0  0  0  0
   -5.2455   -0.0872    0.2639 N   0  0  0  0  0  0  0  0  0  0  0  0
   -4.4115    0.8782   -0.1478 C   0  0  0  0  0  0  0  0  0  0  0  0
   -4.9341    2.1609   -0.4816 N   0  0  0  0  0  0  0  0  0  0  0  0
   -3.1018    0.6004   -0.2319 N   0  0  0  0  0  0  0  0  0  0  0  0
   -2.6329   -0.6269    0.0915 C   0  0  0  0  0  0  0  0  0  0  0  0
    1.3510    1.8411   -0.5554 C   0  0  0  0  0  0  0  0  0  0  0  0
    2.5076    2.4771   -1.0732 O   0  0  0  0  0  0  0  0  0  0  0  0
    3.3507    3.2473   -0.3038 C   0  0  0  0  0  0  0  0  0  0  0  0
    4.5677    3.9234   -0.8231 C   0  0  0  0  0  0  0  0  0  0  0  0
    3.0442    3.3716    0.9295 O   0  0  0  0  0  0  0  0  0  0  0  0
  1  2  1  0
  2  3  2  0
  2  4  1  0
  4  5  1  0
  5  6  1  0
  6  7  1  0
  7  8  1  0
  8  9  1  0
  9 10  1  0
 10 11  2  0
 11 12  1  0
 12 13  2  0
 13 14  1  0
 14 15  2  0
 15 16  1  0
 15 17  1  0
 17 18  2  0
  6 19  1  0
 19 20  1  0
 20 21  1  0
 21 22  1  0
 21 23  2  0
 18  9  1  0
 18 12  1  0
M  END
>  <zinc_id>  (1) 
ZINC000001530635

>  <smiles>  (1) 
CC(=O)OCC(CCn1cnc2cnc(N)nc21)COC(C)=O

$$$$
