
     RDKit          3D

 16 18  0  0  0  0  0  0  0  0999 V2000
    4.7570    1.4686   -0.3677 N   0  0  0  0  0  0  0  0  0  0  0  0
    3.5390    0.7074   -0.2217 C   0  0  0  0  0  0  0  0  0  0  0  0
    3.5893   -0.6500    0.0225 C   0  0  0  0  0  0  0  0  0  0  0  0
    2.4849   -1.4260    0.1703 C   0  0  0  0  0  0  0  0  0  0  0  0
    1.2395   -0.7986    0.0662 C   0  0  0  0  0  0  0  0  0  0  0  0
    0.0874   -1.5399    0.2081 C   0  0  0  0  0  0  0  0  0  0  0  0
   -1.1608   -0.9169    0.1048 C   0  0  0  0  0  0  0  0  0  0  0  0
   -2.3246   -1.6417    0.2438 C   0  0  0  0  0  0  0  0  0  0  0  0
   -3.5398   -1.0124    0.1392 C   0  0  0  0  0  0  0  0  0  0  0  0
   -3.5937    0.3424   -0.1045 C   0  0  0  0  0  0  0  0  0  0  0  0
   -4.8866    0.9744   -0.2091 N   0  0  0  0  0  0  0  0  0  0  0  0
   -2.4299    1.0541   -0.2412 C   0  0  0  0  0  0  0  0  0  0  0  0
   -1.2127    0.4301   -0.1375 C   0  0  0  0  0  0  0  0  0  0  0  0
   -0.0442    1.1274   -0.2716 N   0  0  0  0  0  0  0  0  0  0  0  0
    1.1671    0.5564   -0.1774 C   0  0  0  0  0  0  0  0  0  0  0  0
    2.3282    1.3249   -0.3243 C   0  0  0  0  0  0  0  0  0  0  0  0
  1  2  1  0
  2  3  2  0
  3  4  1  0
  4  5  2  0
  5  6  1  0
  6  7  2  0
  7  8  1  0
  8  9  2  0
  9 10  1  0
 10 11  1  0
 10 12  2  0
 12 13  1  0
 13 14  2  0
 14 15  1  0
 15 16  2  0
 16  2  1  0
 15  5  1  0
 13  7  1  0
M  END
>  <zinc_id>  (1) 
ZINC000003775644

>  <smiles>  (1) 
Nc1ccc2cc3ccc(N)cc3nc2c1

$$$$
