
     RDKit          3D

 17 17  0  0  0  0  0  0  0  0999 V2000
    3.5355    0.4919    0.3201 C   0  0  0  0  0  0  0  0  0  0  0  0
    3.2373    0.5998    0.3490 C   0  0  0  0  0  0  0  0  0  0  0  0
    2.6804    1.3283   -0.8541 C   0  0  0  0  0  0  0  0  0  0  0  0
    3.6612    1.6104    1.4292 C   0  0  0  0  0  0  0  0  0  0  0  0
    2.1274   -0.1429    0.9650 N   0  0  0  0  0  0  0  0  0  0  0  0
    1.8235   -1.3685    0.2737 C   0  0  0  0  0  0  0  0  0  0  0  0
    1.1336   -0.8367   -1.1135 C   0  0  1  0  0  0  0  0  0  0  0  0
    0.9764   -2.2878   -1.6451 O   0  0  0  0  0  0  0  0  0  0  0  0
   -0.3387   -0.7490   -0.4854 C   0  0  0  0  0  0  0  0  0  0  0  0
   -0.8572   -1.6784    0.2887 C   0  0  0  0  0  0  0  0  0  0  0  0
   -2.1327   -1.5229    0.7704 C   0  0  0  0  0  0  0  0  0  0  0  0
   -2.8595   -0.4179    0.4529 C   0  0  0  0  0  0  0  0  0  0  0  0
   -4.1569   -0.3005    0.9664 O   0  0  0  0  0  0  0  0  0  0  0  0
   -2.3263    0.5612   -0.3570 C   0  0  0  0  0  0  0  0  0  0  0  0
   -3.1274    1.7591   -0.6957 C   0  0  0  0  0  0  0  0  0  0  0  0
   -2.3601    2.5709   -1.5127 O   0  0  0  0  0  0  0  0  0  0  0  0
   -1.0165    0.3831   -0.8409 C   0  0  0  0  0  0  0  0  0  0  0  0
  1  2  1  0
  2  3  1  0
  2  4  1  0
  2  5  1  0
  5  6  1  0
  6  7  1  0
  7  8  1  6
  7  9  1  0
  9 10  2  0
 10 11  1  0
 11 12  2  0
 12 13  1  0
 12 14  1  0
 14 15  1  0
 15 16  1  0
 14 17  2  0
 17  9  1  0
M  END
>  <zinc_id>  (1) 
ZINC000000020230

>  <smiles>  (1) 
CC(C)(C)NC[C@@H](O)c1ccc(O)c(CO)c1

$$$$
