
     RDKit          3D

 23 25  0  0  0  0  0  0  0  0999 V2000
   -7.1368    0.9794    1.7260 O   0  0  0  0  0  0  0  0  0  0  0  0
   -6.4410    0.3968    0.8806 C   0  0  0  0  0  0  0  0  0  0  0  0
   -5.0634   -0.0651    1.0353 C   0  0  0  0  0  0  0  0  0  0  0  0
   -4.5764   -0.3014   -0.2942 N   0  0  0  0  0  0  0  0  0  0  0  0
   -3.2606   -0.4405   -0.6738 N   0  0  0  0  0  0  0  0  0  0  0  0
   -2.2377   -0.0912   -0.0084 C   0  0  0  0  0  0  0  0  0  0  0  0
   -0.8589   -0.2881   -0.5137 C   0  0  0  0  0  0  0  0  0  0  0  0
   -0.4890   -0.8482   -1.7146 C   0  0  0  0  0  0  0  0  0  0  0  0
    0.8838   -0.8390   -1.7866 C   0  0  0  0  0  0  0  0  0  0  0  0
    1.2999   -0.2638   -0.6064 C   0  0  0  0  0  0  0  0  0  0  0  0
    2.7083   -0.0380   -0.2260 C   0  0  0  0  0  0  0  0  0  0  0  0
    3.7249   -0.4124   -1.0800 C   0  0  0  0  0  0  0  0  0  0  0  0
    5.0576   -0.2268   -0.7789 C   0  0  0  0  0  0  0  0  0  0  0  0
    5.4036    0.3525    0.4147 C   0  0  0  0  0  0  0  0  0  0  0  0
    6.7835    0.5615    0.7617 N   0  0  0  0  0  0  0  0  0  0  0  0
    7.1211    1.0807    1.8296 O   0  0  0  0  0  0  0  0  0  0  0  0
    7.7447    0.1728   -0.1187 O   0  0  0  0  0  0  0  0  0  0  0  0
    4.3915    0.7288    1.2723 C   0  0  0  0  0  0  0  0  0  0  0  0
    3.0478    0.5367    0.9585 C   0  0  0  0  0  0  0  0  0  0  0  0
    0.2546    0.0350    0.0908 O   0  0  0  0  0  0  0  0  0  0  0  0
   -5.7062   -0.3637   -1.1365 C   0  0  0  0  0  0  0  0  0  0  0  0
   -5.7815   -0.7308   -2.3553 O   0  0  0  0  0  0  0  0  0  0  0  0
   -6.8700    0.0648   -0.4258 N   0  0  0  0  0  0  0  0  0  0  0  0
  1  2  2  0
  2  3  1  0
  3  4  1  0
  4  5  1  0
  5  6  2  0
  6  7  1  0
  7  8  2  0
  8  9  1  0
  9 10  2  0
 10 11  1  0
 11 12  2  0
 12 13  1  0
 13 14  2  0
 14 15  1  0
 15 16  2  0
 15 17  1  0
 14 18  1  0
 18 19  2  0
 10 20  1  0
  4 21  1  0
 21 22  2  0
 21 23  1  0
 23  2  1  0
 20  7  1  0
 19 11  1  0
M  CHG  2  15   1  17  -1
M  END
>  <zinc_id>  (1) 
ZINC000002568036

>  <smiles>  (1) 
O=C1CN(/N=C/c2ccc(-c3ccc([N+](=O)[O-])cc3)o2)C(=O)N1

$$$$
