
     RDKit          3D

 25 26  0  0  0  0  0  0  0  0999 V2000
    5.9328    1.7830    1.7112 C   0  0  0  0  0  0  0  0  0  0  0  0
    5.9940    2.0246    1.1655 C   0  0  0  0  0  0  0  0  0  0  0  0
    5.1565    1.9161   -0.0884 C   0  0  0  0  0  0  0  0  0  0  0  0
    5.1043    0.5248   -0.4850 N   0  0  0  0  0  0  0  0  0  0  0  0
    4.3519   -0.3028    0.4431 C   0  0  0  0  0  0  0  0  0  0  0  0
    2.7787    0.2534    0.2280 C   0  0  1  0  0  0  0  0  0  0  0  0
    2.7543   -0.1229   -1.2437 O   0  0  0  0  0  0  0  0  0  0  0  0
    2.1077   -1.1446    0.7574 C   0  0  0  0  0  0  0  0  0  0  0  0
    0.8870   -1.3173    0.3032 O   0  0  0  0  0  0  0  0  0  0  0  0
    0.0274   -1.4825   -0.6985 C   0  0  0  0  0  0  0  0  0  0  0  0
    0.2937   -1.5472   -2.0406 C   0  0  0  0  0  0  0  0  0  0  0  0
   -0.6304   -1.7200   -3.0121 C   0  0  0  0  0  0  0  0  0  0  0  0
   -1.9606   -1.8443   -2.6470 C   0  0  0  0  0  0  0  0  0  0  0  0
   -2.2650   -1.7857   -1.3281 C   0  0  0  0  0  0  0  0  0  0  0  0
   -1.3285   -1.6111   -0.3586 C   0  0  0  0  0  0  0  0  0  0  0  0
   -1.7349   -1.5400    1.0421 C   0  0  0  0  0  0  0  0  0  0  0  0
   -0.8494   -1.3562    1.9017 O   0  0  0  0  0  0  0  0  0  0  0  0
   -3.1622   -1.6832    1.4034 C   0  0  0  0  0  0  0  0  0  0  0  0
   -3.6410   -0.4613    2.1918 C   0  0  0  0  0  0  0  0  0  0  0  0
   -3.4804    0.7693    1.3529 C   0  0  0  0  0  0  0  0  0  0  0  0
   -4.4742    1.2047    0.5269 C   0  0  0  0  0  0  0  0  0  0  0  0
   -4.3054    2.3268   -0.2446 C   0  0  0  0  0  0  0  0  0  0  0  0
   -3.1127    3.0692   -0.2176 C   0  0  0  0  0  0  0  0  0  0  0  0
   -2.1412    2.5843    0.6346 C   0  0  0  0  0  0  0  0  0  0  0  0
   -2.3023    1.4628    1.4096 C   0  0  0  0  0  0  0  0  0  0  0  0
  1  2  1  0
  2  3  1  0
  3  4  1  0
  4  5  1  0
  5  6  1  0
  6  7  1  6
  6  8  1  0
  8  9  1  0
  9 10  1  0
 10 11  2  0
 11 12  1  0
 12 13  2  0
 13 14  1  0
 14 15  2  0
 15 16  1  0
 16 17  2  0
 16 18  1  0
 18 19  1  0
 19 20  1  0
 20 21  2  0
 21 22  1  0
 22 23  2  0
 23 24  1  0
 24 25  2  0
 15 10  1  0
 25 20  1  0
M  END
>  <zinc_id>  (1) 
ZINC000001530760

>  <smiles>  (1) 
CCCNC[C@@H](O)COc1ccccc1C(=O)CCc1ccccc1

$$$$
