
     RDKit          3D

 21 23  0  0  0  0  0  0  0  0999 V2000
    3.7134    2.4940   -0.5200 C   0  0  0  0  0  0  0  0  0  0  0  0
    3.6479    1.3025   -0.5138 C   0  0  0  0  0  0  0  0  0  0  0  0
    4.0941    0.5292   -1.7404 C   0  0  0  0  0  0  0  0  0  0  0  0
    3.1807    0.6510    0.5723 C   0  0  0  0  0  0  0  0  0  0  0  0
    3.1401   -0.8190    0.4764 C   0  0  0  0  0  0  0  0  0  0  0  0
    1.9085   -1.4649    0.6073 N   0  0  0  0  0  0  0  0  0  0  0  0
    1.2225   -1.5055    1.8052 C   0  0  0  0  0  0  0  0  0  0  0  0
   -0.1007   -0.9276    2.0046 C   0  0  0  0  0  0  0  0  0  0  0  0
   -1.1235   -1.2792    0.9720 C   0  0  1  0  0  0  0  0  0  0  0  0
   -2.0804   -2.3057    1.4213 C   0  0  0  0  0  0  0  0  0  0  0  0
   -1.7737   -0.1319    0.3427 C   0  0  0  0  0  0  0  0  0  0  0  0
   -3.1100    0.0546    0.0757 C   0  0  0  0  0  0  0  0  0  0  0  0
   -3.4575    1.2351   -0.5509 C   0  0  0  0  0  0  0  0  0  0  0  0
   -4.7746    1.5056   -0.8572 O   0  0  0  0  0  0  0  0  0  0  0  0
   -2.5012    2.1927   -0.8966 C   0  0  0  0  0  0  0  0  0  0  0  0
   -1.1553    1.9907   -0.6202 C   0  0  0  0  0  0  0  0  0  0  0  0
   -0.8350    0.8234   -0.0036 C   0  0  0  0  0  0  0  0  0  0  0  0
    0.4998    0.3635    0.4160 C   0  0  0  0  0  0  0  0  0  0  0  0
    0.9202   -0.8886   -0.5080 C   0  0  2  0  0  0  0  0  0  0  0  0
   -0.2440   -2.0679   -0.1153 C   0  0  2  0  0  0  0  0  0  0  0  0
   -1.1714   -1.7520   -1.4033 C   0  0  0  0  0  0  0  0  0  0  0  0
  1  2  1  0
  2  3  1  0
  2  4  2  3
  4  5  1  0
  5  6  1  0
  6  7  1  0
  7  8  1  0
  8  9  1  0
  9 10  1  1
  9 11  1  0
 11 12  2  0
 12 13  1  0
 13 14  1  0
 13 15  2  0
 15 16  1  0
 16 17  2  0
 17 18  1  0
 19 18  1  1
 19 20  1  0
 20 21  1  6
 19  6  1  0
 20  9  1  0
 17 11  1  0
M  END
>  <zinc_id>  (1) 
ZINC000000000596

>  <smiles>  (1) 
CC(C)=CCN1CC[C@@]2(C)c3cc(O)ccc3C[C@@H]1[C@@H]2C

$$$$
