
     RDKit          3D

 32 34  0  0  0  0  0  0  0  0999 V2000
    4.1349    5.1924    0.6071 C   0  0  0  0  0  0  0  0  0  0  0  0
    3.5015    4.3004   -0.2061 C   0  0  0  0  0  0  0  0  0  0  0  0
    3.0105    3.1950    0.5676 O   0  0  0  0  0  0  0  0  0  0  0  0
    2.3073    2.1366    0.0226 C   0  0  0  0  0  0  0  0  0  0  0  0
    2.1062    2.1572   -1.1765 O   0  0  0  0  0  0  0  0  0  0  0  0
    1.8385    1.0288    1.0163 C   0  0  2  0  0  0  0  0  0  0  0  0
    3.1566    0.1029    0.9902 C   0  0  0  0  0  0  0  0  0  0  0  0
    3.4169   -0.4105   -0.3687 C   0  0  0  0  0  0  0  0  0  0  0  0
    4.5580   -1.3383   -0.3495 C   0  0  0  0  0  0  0  0  0  0  0  0
    4.2512   -2.6839   -0.1361 C   0  0  0  0  0  0  0  0  0  0  0  0
    5.2169   -3.6607   -0.0903 C   0  0  0  0  0  0  0  0  0  0  0  0
    6.5520   -3.3047   -0.2606 C   0  0  0  0  0  0  0  0  0  0  0  0
    6.8393   -1.9802   -0.4691 C   0  0  0  0  0  0  0  0  0  0  0  0
    5.8557   -0.9933   -0.5157 C   0  0  0  0  0  0  0  0  0  0  0  0
    1.0363    0.1132    0.0540 N   0  0  0  0  0  0  0  0  0  0  0  0
   -0.1663    1.0176   -0.3398 C   0  0  1  0  0  0  0  0  0  0  0  0
   -0.3671    0.3443   -1.8085 C   0  0  0  0  0  0  0  0  0  0  0  0
   -1.2638    0.1639    0.3775 C   0  0  0  0  0  0  0  0  0  0  0  0
   -0.7866   -0.5930    1.2447 O   0  0  0  0  0  0  0  0  0  0  0  0
   -2.6122    0.1659    0.1521 N   0  0  0  0  0  0  0  0  0  0  0  0
   -3.2899   -0.8001    1.0424 C   0  0  0  0  0  0  0  0  0  0  0  0
   -4.1959   -1.6325    0.2285 C   0  0  0  0  0  0  0  0  0  0  0  0
   -4.2092   -2.9915    0.2479 C   0  0  0  0  0  0  0  0  0  0  0  0
   -5.1044   -3.7086   -0.5758 C   0  0  0  0  0  0  0  0  0  0  0  0
   -5.9575   -2.9909   -1.3936 C   0  0  0  0  0  0  0  0  0  0  0  0
   -5.9218   -1.5868   -1.3925 C   0  0  0  0  0  0  0  0  0  0  0  0
   -5.0453   -0.9022   -0.5844 C   0  0  0  0  0  0  0  0  0  0  0  0
   -4.9140    0.5567   -0.4770 C   0  0  0  0  0  0  0  0  0  0  0  0
   -3.3917    0.9646   -0.8649 C   0  0  1  0  0  0  0  0  0  0  0  0
   -3.4755    2.3472   -0.0832 C   0  0  0  0  0  0  0  0  0  0  0  0
   -4.1788    3.1899   -0.7407 O   0  0  0  0  0  0  0  0  0  0  0  0
   -2.9016    2.6005    1.0788 O   0  0  0  0  0  0  0  0  0  0  0  0
  1  2  1  0
  2  3  1  0
  3  4  1  0
  4  5  2  0
  4  6  1  0
  6  7  1  6
  7  8  1  0
  8  9  1  0
  9 10  2  0
 10 11  1  0
 11 12  2  0
 12 13  1  0
 13 14  2  0
  6 15  1  0
 15 16  1  0
 16 17  1  6
 16 18  1  0
 18 19  2  0
 18 20  1  0
 20 21  1  0
 21 22  1  0
 22 23  2  0
 23 24  1  0
 24 25  2  0
 25 26  1  0
 26 27  2  0
 27 28  1  0
 28 29  1  0
 29 30  1  1
 30 31  2  0
 30 32  1  0
 14  9  1  0
 29 20  1  0
 27 22  1  0
M  END
>  <zinc_id>  (1) 
ZINC000003801163

>  <smiles>  (1) 
CCOC(=O)[C@H](CCc1ccccc1)N[C@@H](C)C(=O)N1Cc2ccccc2C[C@H]1C(=O)O

$$$$
