
     RDKit          3D

 19 20  0  0  0  0  0  0  0  0999 V2000
    3.9742    2.0987    0.1685 C   0  0  0  0  0  0  0  0  0  0  0  0
    3.1639    0.9277    0.1247 C   0  0  0  0  0  0  0  0  0  0  0  0
    1.7883    1.0238    0.4147 C   0  0  0  0  0  0  0  0  0  0  0  0
    1.1010   -0.1018    0.3543 N   0  0  0  0  0  0  0  0  0  0  0  0
   -0.4034   -0.1336    0.6514 C   0  0  1  0  0  0  0  0  0  0  0  0
   -0.7785    1.3386    0.0146 C   0  0  0  0  0  0  0  0  0  0  0  0
   -2.3082    0.9948   -0.4040 C   0  0  2  0  0  0  0  0  0  0  0  0
   -2.8798    1.3046    1.0346 N   0  0  0  0  0  0  0  0  0  0  0  0
   -4.0837    1.4910    0.9531 N   0  0  0  0  0  0  0  0  0  0  0  0
   -5.2712    1.6235    1.2492 N   0  0  0  0  0  0  0  0  0  0  0  0
   -2.1911   -0.6747   -0.0356 C   0  0  1  0  0  0  0  0  0  0  0  0
   -2.9958   -1.1187   -1.4112 C   0  0  0  0  0  0  0  0  0  0  0  0
   -2.4598   -2.3899   -1.6082 O   0  0  0  0  0  0  0  0  0  0  0  0
   -0.8252   -0.7930   -0.6681 O   0  0  0  0  0  0  0  0  0  0  0  0
    1.6019   -1.2944    0.0463 C   0  0  0  0  0  0  0  0  0  0  0  0
    0.9342   -2.3499   -0.0057 O   0  0  0  0  0  0  0  0  0  0  0  0
    2.9552   -1.3875   -0.2388 N   0  0  0  0  0  0  0  0  0  0  0  0
    3.7231   -0.2756   -0.1968 C   0  0  0  0  0  0  0  0  0  0  0  0
    4.9550   -0.2837   -0.4429 O   0  0  0  0  0  0  0  0  0  0  0  0
  1  2  1  0
  2  3  2  0
  3  4  1  0
  5  4  1  6
  5  6  1  0
  7  6  1  1
  7  8  1  0
  8  9  2  3
  9 10  2  0
  7 11  1  0
 11 12  1  6
 12 13  1  0
 11 14  1  0
  4 15  1  0
 15 16  2  0
 15 17  1  0
 17 18  1  0
 18 19  2  0
 18  2  1  0
 14  5  1  0
M  CHG  2   9   1  10  -1
M  END
>  <zinc_id>  (1) 
ZINC000003779042

>  <smiles>  (1) 
Cc1cn([C@H]2C[C@H](N=[N+]=[N-])[C@@H](CO)O2)c(=O)[nH]c1=O

$$$$
