
     RDKit          3D

 27 29  0  0  0  0  0  0  0  0999 V2000
    6.9894    1.5687   -1.7019 O   0  0  0  0  0  0  0  0  0  0  0  0
    6.3308    1.2711   -1.4846 C   0  0  0  0  0  0  0  0  0  0  0  0
    5.1543    1.3568   -2.2578 O   0  0  0  0  0  0  0  0  0  0  0  0
    6.1702    0.5329   -0.1781 C   0  0  0  0  0  0  0  0  0  0  0  0
    4.7946    0.0124    0.0316 C   0  0  0  0  0  0  0  0  0  0  0  0
    3.7837    1.1055    0.0390 C   0  0  0  0  0  0  0  0  0  0  0  0
    2.4435    0.7043    0.2310 N   0  0  0  0  0  0  0  0  0  0  0  0
    1.8076   -0.0417   -0.7818 C   0  0  0  0  0  0  0  0  0  0  0  0
    1.3574   -1.4236   -0.3645 C   0  0  0  0  0  0  0  0  0  0  0  0
    0.5135   -1.2962    0.9001 C   0  0  0  0  0  0  0  0  0  0  0  0
   -0.4373   -0.3092    0.6497 O   0  0  0  0  0  0  0  0  0  0  0  0
   -1.2245   -0.8372   -0.5415 C   0  0  2  0  0  0  0  0  0  0  0  0
   -2.1994    0.4223   -0.6277 C   0  0  0  0  0  0  0  0  0  0  0  0
   -1.6856    1.6646   -0.5328 C   0  0  0  0  0  0  0  0  0  0  0  0
   -2.5330    2.7478   -0.6231 C   0  0  0  0  0  0  0  0  0  0  0  0
   -3.8878    2.5852   -0.8072 C   0  0  0  0  0  0  0  0  0  0  0  0
   -4.9804    3.9686   -0.9250 Cl  0  0  0  0  0  0  0  0  0  0  0  0
   -4.3703    1.2945   -0.8987 C   0  0  0  0  0  0  0  0  0  0  0  0
   -3.5272    0.2074   -0.8092 C   0  0  0  0  0  0  0  0  0  0  0  0
   -2.2024   -1.7670    0.3460 C   0  0  0  0  0  0  0  0  0  0  0  0
   -2.4042   -3.0394   -0.1394 C   0  0  0  0  0  0  0  0  0  0  0  0
   -3.2509   -3.8591    0.6121 C   0  0  0  0  0  0  0  0  0  0  0  0
   -3.8039   -3.3289    1.7598 C   0  0  0  0  0  0  0  0  0  0  0  0
   -3.5509   -2.0506    2.1724 C   0  0  0  0  0  0  0  0  0  0  0  0
   -2.7377   -1.2917    1.4336 N   0  0  0  0  0  0  0  0  0  0  0  0
    1.4531   -0.7637    1.9574 C   0  0  0  0  0  0  0  0  0  0  0  0
    1.9974    0.5662    1.5624 C   0  0  0  0  0  0  0  0  0  0  0  0
  1  2  2  0
  2  3  1  0
  2  4  1  0
  4  5  1  0
  5  6  1  0
  6  7  1  0
  7  8  1  0
  8  9  1  0
  9 10  1  0
 10 11  1  0
 12 11  1  1
 12 13  1  0
 13 14  2  0
 14 15  1  0
 15 16  2  0
 16 17  1  0
 16 18  1  0
 18 19  2  0
 12 20  1  0
 20 21  2  0
 21 22  1  0
 22 23  2  0
 23 24  1  0
 24 25  2  0
 10 26  1  0
 26 27  1  0
 27  7  1  0
 19 13  1  0
 25 20  1  0
M  END
>  <zinc_id>  (1) 
ZINC000003871703

>  <smiles>  (1) 
O=C(O)CCCN1CCC(O[C@H](c2ccc(Cl)cc2)c2ccccn2)CC1

$$$$
