
     RDKit          3D

 24 26  0  0  0  0  0  0  0  0999 V2000
   -3.3934   -1.0914    2.0299 C   0  0  0  0  0  0  0  0  0  0  0  0
   -3.8685   -0.1823    1.0089 C   0  0  0  0  0  0  0  0  0  0  0  0
   -5.1267    0.3768    1.0515 C   0  0  0  0  0  0  0  0  0  0  0  0
   -5.5580    1.2320    0.0681 C   0  0  0  0  0  0  0  0  0  0  0  0
   -4.6724    1.5017   -0.9571 C   0  0  0  0  0  0  0  0  0  0  0  0
   -3.4214    0.9386   -0.9903 C   0  0  0  0  0  0  0  0  0  0  0  0
   -2.9519    0.0716   -0.0159 C   0  0  0  0  0  0  0  0  0  0  0  0
   -1.6794   -0.4980   -0.0729 N   0  0  0  0  0  0  0  0  0  0  0  0
   -0.5886   -0.0564    0.6862 C   0  0  0  0  0  0  0  0  0  0  0  0
   -0.7436    0.3972    1.8819 O   0  0  0  0  0  0  0  0  0  0  0  0
    0.7495   -0.1101    0.1145 C   0  0  0  0  0  0  0  0  0  0  0  0
    1.8541    0.2933    0.8356 C   0  0  0  0  0  0  0  0  0  0  0  0
    3.0841    0.1833    0.2053 C   0  0  0  0  0  0  0  0  0  0  0  0
    4.5609    0.6436    1.0531 S   0  0  0  0  0  0  0  0  0  0  0  0
    5.4180    1.8954    0.2407 N   0  0  0  0  0  0  0  0  0  0  0  0
    5.4799   -0.5618    1.1815 O   0  0  0  0  0  0  0  0  0  0  0  0
    4.2023    1.1350    2.4260 O   0  0  0  0  0  0  0  0  0  0  0  0
    3.2190   -0.2986   -1.0756 C   0  0  0  0  0  0  0  0  0  0  0  0
    4.8269   -0.3948   -1.7845 Cl  0  0  0  0  0  0  0  0  0  0  0  0
    2.0862   -0.7017   -1.7876 C   0  0  0  0  0  0  0  0  0  0  0  0
    0.8476   -0.6050   -1.1818 C   0  0  0  0  0  0  0  0  0  0  0  0
   -0.3100   -1.0211   -1.8733 N   0  0  0  0  0  0  0  0  0  0  0  0
   -1.4031   -1.7353   -0.9767 C   0  0  2  0  0  0  0  0  0  0  0  0
   -2.6116   -1.4119   -2.0674 C   0  0  0  0  0  0  0  0  0  0  0  0
  1  2  1  0
  2  3  2  0
  3  4  1  0
  4  5  2  0
  5  6  1  0
  6  7  2  0
  7  8  1  0
  8  9  1  0
  9 10  2  0
  9 11  1  0
 11 12  2  0
 12 13  1  0
 13 14  1  0
 14 15  1  0
 14 16  2  0
 14 17  2  0
 13 18  2  0
 18 19  1  0
 18 20  1  0
 20 21  2  0
 21 22  1  0
 22 23  1  0
 23 24  1  6
  7  2  1  0
 23  8  1  0
 21 11  1  0
M  END
>  <zinc_id>  (1) 
ZINC000000896755

>  <smiles>  (1) 
Cc1ccccc1N1C(=O)c2cc(S(N)(=O)=O)c(Cl)cc2N[C@@H]1C

$$$$
