
     RDKit          3D

 17 18  0  0  0  0  0  0  0  0999 V2000
    3.3676    0.5473    1.7503 C   0  0  0  0  0  0  0  0  0  0  0  0
    2.0309    0.2617    0.8582 C   0  0  1  0  0  0  0  0  0  0  0  0
    2.2563    1.4678   -0.0132 O   0  0  0  0  0  0  0  0  0  0  0  0
    2.7900   -0.7714   -0.2592 C   0  0  1  0  0  0  0  0  0  0  0  0
    2.6491   -1.9890    0.6442 O   0  0  0  0  0  0  0  0  0  0  0  0
    1.4284   -1.2807   -1.1188 C   0  0  2  0  0  0  0  0  0  0  0  0
    1.1592    0.1548   -1.8082 C   0  0  0  0  0  0  0  0  0  0  0  0
   -0.2651    0.3062   -1.9897 N   0  0  0  0  0  0  0  0  0  0  0  0
   -1.0820    0.3575   -0.8331 C   0  0  0  0  0  0  0  0  0  0  0  0
   -2.1460    1.1790   -0.6867 N   0  0  0  0  0  0  0  0  0  0  0  0
   -2.8537    1.1437    0.4566 C   0  0  0  0  0  0  0  0  0  0  0  0
   -3.9815    2.0195    0.6026 N   0  0  0  0  0  0  0  0  0  0  0  0
   -2.4849    0.2892    1.4302 N   0  0  0  0  0  0  0  0  0  0  0  0
   -1.4526   -0.5403    1.3463 C   0  0  0  0  0  0  0  0  0  0  0  0
   -1.0632   -1.3450    2.1989 O   0  0  0  0  0  0  0  0  0  0  0  0
   -0.7100   -0.5058    0.1511 C   0  0  0  0  0  0  0  0  0  0  0  0
    0.3576   -1.2944   -0.0645 N   0  0  0  0  0  0  0  0  0  0  0  0
  2  1  1  1
  2  3  1  0
  2  4  1  0
  4  5  1  1
  4  6  1  0
  6  7  1  6
  7  8  1  0
  8  9  1  0
  9 10  1  0
 10 11  1  0
 11 12  1  0
 11 13  2  0
 13 14  1  0
 14 15  2  0
 14 16  1  0
 16 17  1  0
 17  6  1  0
 16  9  2  0
M  END
>  <zinc_id>  (1) 
ZINC000004228258

>  <smiles>  (1) 
C[C@@H](O)[C@@H](O)[C@@H]1CNc2[nH]c(N)nc(=O)c2N1

$$$$
