
     RDKit          3D

 12 12  0  0  0  0  0  0  0  0999 V2000
    0.6546   -0.2818    2.5299 N   0  0  0  0  0  0  0  0  0  0  0  0
    1.0303   -0.8464    1.2231 C   0  0  0  0  0  0  0  0  0  0  0  0
    0.1345   -0.1046    0.2195 C   0  0  0  0  0  0  0  0  0  0  0  0
   -1.2820   -0.4048    0.6084 C   0  0  0  0  0  0  0  0  0  0  0  0
   -2.2220    0.2633   -0.2969 C   0  0  0  0  0  0  0  0  0  0  0  0
   -1.7830    0.9692   -1.2392 O   0  0  0  0  0  0  0  0  0  0  0  0
   -3.6029    0.1587   -0.1702 O   0  0  0  0  0  0  0  0  0  0  0  0
    0.4833    1.3636    0.3622 C   0  0  0  0  0  0  0  0  0  0  0  0
    1.9979    1.4450    0.3620 C   0  0  0  0  0  0  0  0  0  0  0  0
    2.5665    0.4422   -0.6379 C   0  0  0  0  0  0  0  0  0  0  0  0
    1.5856    0.2138   -1.7610 C   0  0  0  0  0  0  0  0  0  0  0  0
    0.4372   -0.6006   -1.2001 C   0  0  0  0  0  0  0  0  0  0  0  0
  1  2  1  0
  2  3  1  0
  3  4  1  0
  4  5  1  0
  5  6  2  0
  5  7  1  0
  3  8  1  0
  8  9  1  0
  9 10  1  0
 10 11  1  0
 11 12  1  0
 12  3  1  0
M  END
>  <zinc_id>  (1) 
ZINC000000004949

>  <smiles>  (1) 
NCC1(CC(=O)O)CCCCC1

$$$$
