
     RDKit          3D

 16 16  0  0  0  0  0  0  0  0999 V2000
    4.2354   -1.0547   -0.1402 C   0  0  0  0  0  0  0  0  0  0  0  0
    3.5169   -0.4982    0.0560 C   0  0  0  0  0  0  0  0  0  0  0  0
    3.3463    0.4970   -1.0888 C   0  0  0  0  0  0  0  0  0  0  0  0
    3.9681    0.3101    1.2763 C   0  0  0  0  0  0  0  0  0  0  0  0
    2.3611   -1.2955    0.3160 N   0  0  0  0  0  0  0  0  0  0  0  0
    1.1472   -0.6029    0.5764 C   0  0  0  0  0  0  0  0  0  0  0  0
    0.6840    0.1027   -0.8207 C   0  0  1  0  0  0  0  0  0  0  0  0
    0.5507   -1.1940   -1.5796 O   0  0  0  0  0  0  0  0  0  0  0  0
   -0.8653    0.2167   -0.4124 C   0  0  0  0  0  0  0  0  0  0  0  0
   -1.5575   -0.8212    0.0253 C   0  0  0  0  0  0  0  0  0  0  0  0
   -2.8988   -0.6374    0.3631 C   0  0  0  0  0  0  0  0  0  0  0  0
   -3.6468   -1.7173    0.8249 O   0  0  0  0  0  0  0  0  0  0  0  0
   -3.4573    0.6094    0.2324 C   0  0  0  0  0  0  0  0  0  0  0  0
   -2.6993    1.6804   -0.2312 C   0  0  0  0  0  0  0  0  0  0  0  0
   -3.3087    2.9151   -0.3455 O   0  0  0  0  0  0  0  0  0  0  0  0
   -1.3760    1.4898   -0.5625 C   0  0  0  0  0  0  0  0  0  0  0  0
  1  2  1  0
  2  3  1  0
  2  4  1  0
  2  5  1  0
  5  6  1  0
  6  7  1  0
  7  8  1  6
  7  9  1  0
  9 10  2  0
 10 11  1  0
 11 12  1  0
 11 13  2  0
 13 14  1  0
 14 15  1  0
 14 16  2  0
 16  9  1  0
M  END
>  <zinc_id>  (1) 
ZINC000000002281

>  <smiles>  (1) 
CC(C)(C)NC[C@@H](O)c1cc(O)cc(O)c1

$$$$
