
     RDKit          3D

  9  8  0  0  0  0  0  0  0  0999 V2000
   -1.5007    1.0765    0.5556 O   0  0  0  0  0  0  0  0  0  0  0  0
   -1.3530   -0.1701   -0.2565 P   0  0  0  0  0  0  0  0  0  0  0  0
   -1.8236   -1.5331    0.6481 O   0  0  0  0  0  0  0  0  0  0  0  0
   -2.4399   -0.0848   -1.5698 O   0  0  0  0  0  0  0  0  0  0  0  0
    0.1842   -0.3604   -0.9091 O   0  0  0  0  0  0  0  0  0  0  0  0
    1.3904    0.1993    0.1374 P   0  0  0  0  0  0  0  0  0  0  0  0
    1.7316    1.6527   -0.1294 O   0  0  0  0  0  0  0  0  0  0  0  0
    1.0143   -0.0866    1.7461 O   0  0  0  0  0  0  0  0  0  0  0  0
    2.7968   -0.6934   -0.2226 O   0  0  0  0  0  0  0  0  0  0  0  0
  1  2  2  0
  2  3  1  0
  2  4  1  0
  2  5  1  0
  5  6  1  0
  6  7  2  0
  6  8  1  0
  6  9  1  0
M  END
>  <zinc_id>  (1) 
ZINC000006827695

>  <smiles>  (1) 
O=P(O)(O)OP(=O)(O)O

$$$$
