
     RDKit          3D

 40 44  0  0  0  0  0  0  0  0999 V2000
   10.7613   -1.3423    1.0027 C   0  0  0  0  0  0  0  0  0  0  0  0
    9.1676   -1.7364    0.3721 S   0  0  0  0  0  0  0  0  0  0  0  0
    9.3436   -2.7412   -0.7499 O   0  0  0  0  0  0  0  0  0  0  0  0
    8.4813   -0.5201   -0.1300 O   0  0  0  0  0  0  0  0  0  0  0  0
    8.1445   -2.5430    1.6114 C   0  0  0  0  0  0  0  0  0  0  0  0
    6.8208   -2.8221    0.9387 C   0  0  0  0  0  0  0  0  0  0  0  0
    6.2319   -1.5726    0.5097 N   0  0  0  0  0  0  0  0  0  0  0  0
    5.8323   -0.7880    1.6863 C   0  0  0  0  0  0  0  0  0  0  0  0
    5.2205    0.5055    1.2007 C   0  0  0  0  0  0  0  0  0  0  0  0
    5.8720    1.7129    1.0821 C   0  0  0  0  0  0  0  0  0  0  0  0
    4.9397    2.6065    0.6066 C   0  0  0  0  0  0  0  0  0  0  0  0
    3.7553    1.9232    0.4501 C   0  0  0  0  0  0  0  0  0  0  0  0
    2.5200    2.5166   -0.0352 C   0  0  0  0  0  0  0  0  0  0  0  0
    2.4856    3.8492   -0.3670 C   0  0  0  0  0  0  0  0  0  0  0  0
    1.3635    4.4859   -0.8362 C   0  0  0  0  0  0  0  0  0  0  0  0
    0.2101    3.7637   -0.9860 C   0  0  0  0  0  0  0  0  0  0  0  0
   -0.9428    4.2956   -1.4407 N   0  0  0  0  0  0  0  0  0  0  0  0
   -2.0553    3.5412   -1.5732 C   0  0  0  0  0  0  0  0  0  0  0  0
   -2.0994    2.2328   -1.2695 N   0  0  0  0  0  0  0  0  0  0  0  0
   -0.9539    1.6534   -0.8054 C   0  0  0  0  0  0  0  0  0  0  0  0
   -0.8704    0.2846   -0.4491 N   0  0  0  0  0  0  0  0  0  0  0  0
   -1.9779   -0.5994   -0.5523 C   0  0  0  0  0  0  0  0  0  0  0  0
   -3.1928   -0.1607   -1.0296 C   0  0  0  0  0  0  0  0  0  0  0  0
   -4.3083   -0.9507   -1.1593 C   0  0  0  0  0  0  0  0  0  0  0  0
   -4.2414   -2.2750   -0.7967 C   0  0  0  0  0  0  0  0  0  0  0  0
   -5.3248   -3.1114   -0.9053 O   0  0  0  0  0  0  0  0  0  0  0  0
   -6.5743   -2.7603   -1.3716 C   0  0  0  0  0  0  0  0  0  0  0  0
   -7.2751   -1.7013   -0.6238 C   0  0  0  0  0  0  0  0  0  0  0  0
   -7.5490   -0.4820   -1.2441 C   0  0  0  0  0  0  0  0  0  0  0  0
   -8.1955    0.5124   -0.5744 C   0  0  0  0  0  0  0  0  0  0  0  0
   -8.5753    0.2934    0.7281 C   0  0  0  0  0  0  0  0  0  0  0  0
   -8.3093   -0.9044    1.3458 C   0  0  0  0  0  0  0  0  0  0  0  0
   -8.6962   -1.0894    2.6306 F   0  0  0  0  0  0  0  0  0  0  0  0
   -7.6588   -1.9137    0.6823 C   0  0  0  0  0  0  0  0  0  0  0  0
   -3.0114   -2.7351   -0.3092 C   0  0  0  0  0  0  0  0  0  0  0  0
   -2.9546   -4.4357    0.1461 Cl  0  0  0  0  0  0  0  0  0  0  0  0
   -1.9048   -1.9250   -0.1873 C   0  0  0  0  0  0  0  0  0  0  0  0
    0.1890    2.4224   -0.6677 C   0  0  0  0  0  0  0  0  0  0  0  0
    1.3423    1.8153   -0.1966 C   0  0  0  0  0  0  0  0  0  0  0  0
    3.9900    0.6951    0.8167 O   0  0  0  0  0  0  0  0  0  0  0  0
  1  2  1  0
  2  3  2  0
  2  4  2  0
  2  5  1  0
  5  6  1  0
  6  7  1  0
  7  8  1  0
  8  9  1  0
  9 10  2  0
 10 11  1  0
 11 12  2  0
 12 13  1  0
 13 14  2  0
 14 15  1  0
 15 16  2  0
 16 17  1  0
 17 18  2  0
 18 19  1  0
 19 20  2  0
 20 21  1  0
 21 22  1  0
 22 23  2  0
 23 24  1  0
 24 25  2  0
 25 26  1  0
 26 27  1  0
 27 28  1  0
 28 29  2  0
 29 30  1  0
 30 31  2  0
 31 32  1  0
 32 33  1  0
 32 34  2  0
 25 35  1  0
 35 36  1  0
 35 37  2  0
 20 38  1  0
 38 39  2  0
 12 40  1  0
 40  9  1  0
 39 13  1  0
 38 16  1  0
 37 22  1  0
 34 28  1  0
M  END
>  <zinc_id>  (1) 
ZINC000001550477

>  <smiles>  (1) 
CS(=O)(=O)CCNCc1ccc(-c2ccc3ncnc(Nc4ccc(OCc5cccc(F)c5)c(Cl)c4)c3c2)o1

$$$$
