
     RDKit          3D

 33 35  0  0  0  0  0  0  0  0999 V2000
   -2.1034   -2.9145   -0.2313 C   0  0  0  0  0  0  0  0  0  0  0  0
   -1.6914   -2.4626    0.2405 N   0  0  0  0  0  0  0  0  0  0  0  0
   -2.5578   -2.0304    1.3682 C   0  0  0  0  0  0  0  0  0  0  0  0
   -3.7304   -1.2666    0.9743 C   0  0  0  0  0  0  0  0  0  0  0  0
   -4.9672   -1.8170    0.7271 C   0  0  0  0  0  0  0  0  0  0  0  0
   -6.0255   -1.0532    0.3582 N   0  0  0  0  0  0  0  0  0  0  0  0
   -5.9079    0.2794    0.2188 C   0  0  0  0  0  0  0  0  0  0  0  0
   -6.9347    1.0637   -0.1458 N   0  0  0  0  0  0  0  0  0  0  0  0
   -6.8208    2.3978   -0.2877 C   0  0  0  0  0  0  0  0  0  0  0  0
   -7.9095    3.2111   -0.6725 N   0  0  0  0  0  0  0  0  0  0  0  0
   -5.6095    2.9288   -0.0445 N   0  0  0  0  0  0  0  0  0  0  0  0
   -4.5442    2.2060    0.3223 C   0  0  0  0  0  0  0  0  0  0  0  0
   -3.2566    2.7601    0.5814 N   0  0  0  0  0  0  0  0  0  0  0  0
   -4.6710    0.8346    0.4654 C   0  0  0  0  0  0  0  0  0  0  0  0
   -3.6093    0.0642    0.8360 N   0  0  0  0  0  0  0  0  0  0  0  0
   -0.3331   -2.0180    0.1909 C   0  0  0  0  0  0  0  0  0  0  0  0
    0.4509   -2.3888   -0.8355 C   0  0  0  0  0  0  0  0  0  0  0  0
    1.7931   -2.0130   -0.9789 C   0  0  0  0  0  0  0  0  0  0  0  0
    2.3614   -1.2324   -0.0467 C   0  0  0  0  0  0  0  0  0  0  0  0
    3.7699   -0.7717   -0.0975 C   0  0  0  0  0  0  0  0  0  0  0  0
    4.2529   -0.1277    0.8653 O   0  0  0  0  0  0  0  0  0  0  0  0
    4.5893   -1.0333   -1.1961 N   0  0  0  0  0  0  0  0  0  0  0  0
    6.0303   -0.5952   -1.3155 C   0  0  1  0  0  0  0  0  0  0  0  0
    5.9108    0.8352   -0.5952 C   0  0  0  0  0  0  0  0  0  0  0  0
    4.9265    1.6375   -1.4591 C   0  0  0  0  0  0  0  0  0  0  0  0
    4.7420    2.9802   -0.9045 C   0  0  0  0  0  0  0  0  0  0  0  0
    5.3521    3.3063    0.1246 O   0  0  0  0  0  0  0  0  0  0  0  0
    3.9063    3.8983   -1.4939 O   0  0  0  0  0  0  0  0  0  0  0  0
    6.6677   -1.3789   -0.1159 C   0  0  0  0  0  0  0  0  0  0  0  0
    6.0666   -2.1683    0.5881 O   0  0  0  0  0  0  0  0  0  0  0  0
    8.0135   -1.0875    0.0796 O   0  0  0  0  0  0  0  0  0  0  0  0
    1.5930   -0.8297    1.0221 C   0  0  0  0  0  0  0  0  0  0  0  0
    0.2458   -1.2143    1.1538 C   0  0  0  0  0  0  0  0  0  0  0  0
  1  2  1  0
  2  3  1  0
  3  4  1  0
  4  5  2  0
  5  6  1  0
  6  7  2  0
  7  8  1  0
  8  9  2  0
  9 10  1  0
  9 11  1  0
 11 12  2  0
 12 13  1  0
 12 14  1  0
 14 15  2  0
  2 16  1  0
 16 17  2  0
 17 18  1  0
 18 19  2  0
 19 20  1  0
 20 21  2  0
 20 22  1  0
 22 23  1  0
 23 24  1  1
 24 25  1  0
 25 26  1  0
 26 27  2  0
 26 28  1  0
 23 29  1  0
 29 30  2  0
 29 31  1  0
 19 32  1  0
 32 33  2  0
 15  4  1  0
 33 16  1  0
 14  7  1  0
M  END
>  <zinc_id>  (1) 
ZINC000001529323

>  <smiles>  (1) 
CN(Cc1cnc2nc(N)nc(N)c2n1)c1ccc(C(=O)N[C@@H](CCC(=O)O)C(=O)O)cc1

$$$$
