
     RDKit          3D

 24 27  0  0  0  0  0  0  0  0999 V2000
    4.5385    0.2722    1.8883 C   0  0  0  0  0  0  0  0  0  0  0  0
    4.4982   -0.3823    1.3096 C   0  0  0  0  0  0  0  0  0  0  0  0
    4.1856   -0.4413   -0.2457 C   0  0  1  0  0  0  0  0  0  0  0  0
    2.6348   -0.8934   -0.0547 C   0  0  0  0  0  0  0  0  0  0  0  0
    1.9863   -0.3581   -1.1767 N   0  0  0  0  0  0  0  0  0  0  0  0
    2.8727   -0.0764   -2.2684 C   0  0  0  0  0  0  0  0  0  0  0  0
    3.5320    1.2101   -1.9875 C   0  0  0  0  0  0  0  0  0  0  0  0
    3.9609    1.2448   -0.4156 C   0  0  1  0  0  0  0  0  0  0  0  0
    2.5243    1.4074    0.2976 C   0  0  0  0  0  0  0  0  0  0  0  0
    1.4237    1.0611   -0.8454 C   0  0  2  0  0  0  0  0  0  0  0  0
    0.2925    0.4839    0.3369 C   0  0  1  0  0  0  0  0  0  0  0  0
   -0.2569    1.8793    0.6316 O   0  0  0  0  0  0  0  0  0  0  0  0
   -0.8709    0.0954   -0.6902 C   0  0  0  0  0  0  0  0  0  0  0  0
   -0.7193    0.0469   -1.9938 C   0  0  0  0  0  0  0  0  0  0  0  0
   -1.7754   -0.3185   -2.7939 C   0  0  0  0  0  0  0  0  0  0  0  0
   -2.9566   -0.6238   -2.2329 N   0  0  0  0  0  0  0  0  0  0  0  0
   -3.1312   -0.5785   -0.8837 C   0  0  0  0  0  0  0  0  0  0  0  0
   -4.3547   -0.8912   -0.3319 C   0  0  0  0  0  0  0  0  0  0  0  0
   -4.4631   -0.8191    1.0391 C   0  0  0  0  0  0  0  0  0  0  0  0
   -3.4149   -0.4541    1.8515 C   0  0  0  0  0  0  0  0  0  0  0  0
   -3.6184   -0.4086    3.2256 O   0  0  0  0  0  0  0  0  0  0  0  0
   -2.6106   -0.0485    4.1388 C   0  0  0  0  0  0  0  0  0  0  0  0
   -2.2193   -0.1508    1.2881 C   0  0  0  0  0  0  0  0  0  0  0  0
   -2.0582   -0.2083   -0.0867 C   0  0  0  0  0  0  0  0  0  0  0  0
  1  2  2  0
  3  2  1  1
  3  4  1  0
  4  5  1  0
  5  6  1  0
  6  7  1  0
  8  7  1  6
  8  9  1  0
 10  9  1  1
 10 11  1  0
 11 12  1  1
 11 13  1  0
 13 14  2  0
 14 15  1  0
 15 16  2  0
 16 17  1  0
 17 18  2  0
 18 19  1  0
 19 20  2  0
 20 21  1  0
 21 22  1  0
 20 23  1  0
 23 24  2  0
  8  3  1  0
 24 13  1  0
 10  5  1  0
 24 17  1  0
M  END
>  <zinc_id>  (1) 
ZINC000003831405

>  <smiles>  (1) 
C=C[C@H]1CN2CC[C@H]1C[C@@H]2[C@@H](O)c1ccnc2ccc(OC)cc12

$$$$
