
     RDKit          3D

 17 18  0  0  0  0  0  0  0  0999 V2000
    0.4731    3.8503   -0.9234 C   0  0  0  0  0  0  0  0  0  0  0  0
    0.5079    2.7383   -0.1788 O   0  0  0  0  0  0  0  0  0  0  0  0
   -0.3925    1.7244   -0.0829 C   0  0  0  0  0  0  0  0  0  0  0  0
   -1.3674    1.8477   -0.7728 O   0  0  0  0  0  0  0  0  0  0  0  0
    0.0180    0.6218    0.8913 C   0  0  1  0  0  0  0  0  0  0  0  0
   -1.2058   -0.3664    0.8254 C   0  0  0  0  0  0  0  0  0  0  0  0
   -2.4323   -0.0347    0.4944 C   0  0  0  0  0  0  0  0  0  0  0  0
   -3.4860   -0.8862    0.4485 C   0  0  0  0  0  0  0  0  0  0  0  0
   -3.2683   -2.1956    0.7696 C   0  0  0  0  0  0  0  0  0  0  0  0
   -2.0019   -2.6097    1.1264 C   0  0  0  0  0  0  0  0  0  0  0  0
   -0.9428   -1.7019    1.1615 C   0  0  0  0  0  0  0  0  0  0  0  0
    0.9587   -0.3396   -0.1590 C   0  0  1  0  0  0  0  0  0  0  0  0
    2.0704    0.7715   -0.5485 C   0  0  0  0  0  0  0  0  0  0  0  0
    2.9406    0.0485   -1.5037 C   0  0  0  0  0  0  0  0  0  0  0  0
    3.2399   -1.3170   -0.9214 C   0  0  0  0  0  0  0  0  0  0  0  0
    3.0836   -1.2552    0.5624 C   0  0  0  0  0  0  0  0  0  0  0  0
    1.8046   -0.8964    1.0423 N   0  0  0  0  0  0  0  0  0  0  0  0
  1  2  1  0
  2  3  1  0
  3  4  2  0
  5  3  1  6
  5  6  1  0
  6  7  2  0
  7  8  1  0
  8  9  2  0
  9 10  1  0
 10 11  2  0
  5 12  1  0
 12 13  1  6
 13 14  1  0
 14 15  1  0
 15 16  1  0
 16 17  1  0
 11  6  1  0
 17 12  1  0
M  END
>  <zinc_id>  (1) 
ZINC000000896709

>  <smiles>  (1) 
COC(=O)[C@@H](c1ccccc1)[C@H]1CCCCN1

$$$$
