
     RDKit          3D

 36 39  0  0  0  0  0  0  0  0999 V2000
    7.7501    1.3180    1.8605 C   0  0  0  0  0  0  0  0  0  0  0  0
    6.2786    1.2923    1.7319 C   0  0  0  0  0  0  0  0  0  0  0  0
    5.8763    0.9723    0.3373 C   0  0  0  0  0  0  0  0  0  0  0  0
    6.7412    0.7634   -0.5601 O   0  0  0  0  0  0  0  0  0  0  0  0
    4.5757    0.8921   -0.0260 O   0  0  0  0  0  0  0  0  0  0  0  0
    4.0223    0.6156   -1.2332 C   0  0  0  0  0  0  0  0  0  0  0  0
    2.5695    0.5834   -1.4095 C   0  0  0  0  0  0  0  0  0  0  0  0
    2.2952    0.5311   -2.6493 O   0  0  0  0  0  0  0  0  0  0  0  0
    1.5871    0.6123   -0.3979 C   0  0  1  0  0  0  0  0  0  0  0  0
    2.1264    0.2300    0.8208 O   0  0  0  0  0  0  0  0  0  0  0  0
    2.6190   -1.0763    0.8814 C   0  0  0  0  0  0  0  0  0  0  0  0
    2.6140   -1.8855   -0.0752 O   0  0  0  0  0  0  0  0  0  0  0  0
    3.2063   -1.5964    2.1671 C   0  0  0  0  0  0  0  0  0  0  0  0
    3.6773   -3.0041    2.0501 C   0  0  0  0  0  0  0  0  0  0  0  0
    1.0254    2.1474   -0.2300 C   0  0  1  0  0  0  0  0  0  0  0  0
    2.0479    2.9497   -1.1868 C   0  0  0  0  0  0  0  0  0  0  0  0
   -0.0379    1.9038   -1.4941 C   0  0  0  0  0  0  0  0  0  0  0  0
   -0.8071    1.0534   -0.3926 C   0  0  1  0  0  0  0  0  0  0  0  0
   -1.9139    0.1759   -1.2803 C   0  0  2  0  0  0  0  0  0  0  0  0
   -2.8982    1.3991   -1.5200 C   0  0  0  0  0  0  0  0  0  0  0  0
   -4.3008    1.1016   -1.4595 C   0  0  0  0  0  0  0  0  0  0  0  0
   -4.7544    0.2381   -0.3644 C   0  0  0  0  0  0  0  0  0  0  0  0
   -5.8031    0.4740    0.3617 C   0  0  0  0  0  0  0  0  0  0  0  0
   -6.1727   -0.4594    1.4541 C   0  0  0  0  0  0  0  0  0  0  0  0
   -7.1861   -0.2482    2.1680 O   0  0  0  0  0  0  0  0  0  0  0  0
   -5.3493   -1.6160    1.6850 C   0  0  0  0  0  0  0  0  0  0  0  0
   -4.2918   -1.8193    0.9156 C   0  0  0  0  0  0  0  0  0  0  0  0
   -3.8670   -0.9694   -0.1784 C   0  0  1  0  0  0  0  0  0  0  0  0
   -3.9443   -1.6927   -1.5110 C   0  0  0  0  0  0  0  0  0  0  0  0
   -2.5569   -0.3689    0.1012 C   0  0  2  0  0  0  0  0  0  0  0  0
   -2.7256    0.8486    1.3052 Cl  0  0  0  0  0  0  0  0  0  0  0  0
   -1.5439   -1.5257    0.6079 C   0  0  1  0  0  0  0  0  0  0  0  0
   -1.3645   -2.1975   -0.7251 O   0  0  0  0  0  0  0  0  0  0  0  0
   -0.1140   -0.7908    0.6404 C   0  0  0  0  0  0  0  0  0  0  0  0
    0.3067   -0.1330   -0.5330 C   0  0  2  0  0  0  0  0  0  0  0  0
    0.3127   -0.7188   -1.8615 C   0  0  0  0  0  0  0  0  0  0  0  0
  1  2  1  0
  2  3  1  0
  3  4  2  0
  3  5  1  0
  5  6  1  0
  6  7  1  0
  7  8  2  0
  7  9  1  0
  9 10  1  1
 10 11  1  0
 11 12  2  0
 11 13  1  0
 13 14  1  0
  9 15  1  0
 15 16  1  6
 15 17  1  0
 18 17  1  6
 18 19  1  0
 19 20  1  1
 20 21  1  0
 21 22  1  0
 22 23  2  0
 23 24  1  0
 24 25  2  0
 24 26  1  0
 26 27  2  0
 27 28  1  0
 28 29  1  6
 28 30  1  0
 30 31  1  1
 30 32  1  0
 32 33  1  6
 32 34  1  0
 34 35  1  0
 35 36  1  6
 35  9  1  0
 35 18  1  0
 30 19  1  0
 28 22  1  0
M  END
>  <zinc_id>  (1) 
ZINC000003938744

>  <smiles>  (1) 
CCC(=O)OCC(=O)[C@@]1(OC(=O)CC)[C@@H](C)C[C@H]2[C@@H]3CCC4=CC(=O)C=C[C@]4(C)[C@@]3(Cl)[C@@H](O)C[C@@]21C

$$$$
