
     RDKit          3D

 17 17  0  0  0  0  0  0  0  0999 V2000
   -3.4784    1.3647    0.1956 O   0  0  0  0  0  0  0  0  0  0  0  0
   -2.3651    1.1119   -0.7942 P   0  0  0  0  0  0  0  0  0  0  0  0
   -2.1378    2.5138   -1.7133 O   0  0  0  0  0  0  0  0  0  0  0  0
   -2.7612   -0.1973   -1.8054 O   0  0  0  0  0  0  0  0  0  0  0  0
   -0.8172    0.6455    0.0662 C   0  0  0  0  0  0  0  0  0  0  0  0
   -0.4836    1.5795    1.0403 O   0  0  0  0  0  0  0  0  0  0  0  0
    0.2303    0.4461   -0.9671 C   0  0  0  0  0  0  0  0  0  0  0  0
    1.5597    0.0656   -0.4737 C   0  0  0  0  0  0  0  0  0  0  0  0
    2.5526    0.9667   -0.1249 C   0  0  0  0  0  0  0  0  0  0  0  0
    3.7848    0.5482    0.3304 C   0  0  0  0  0  0  0  0  0  0  0  0
    4.0594   -0.7972    0.4503 C   0  0  0  0  0  0  0  0  0  0  0  0
    3.0965   -1.6730    0.1121 N   0  0  0  0  0  0  0  0  0  0  0  0
    1.8842   -1.2670   -0.3358 C   0  0  0  0  0  0  0  0  0  0  0  0
   -1.1503   -0.9489    0.8621 P   0  0  0  0  0  0  0  0  0  0  0  0
   -0.1573   -1.2249    1.9905 O   0  0  0  0  0  0  0  0  0  0  0  0
   -2.7335   -0.9827    1.4892 O   0  0  0  0  0  0  0  0  0  0  0  0
   -1.0831   -2.1511   -0.3224 O   0  0  0  0  0  0  0  0  0  0  0  0
  1  2  2  0
  2  3  1  0
  2  4  1  0
  2  5  1  0
  5  6  1  0
  5  7  1  0
  7  8  1  0
  8  9  2  0
  9 10  1  0
 10 11  2  0
 11 12  1  0
 12 13  2  0
  5 14  1  0
 14 15  2  0
 14 16  1  0
 14 17  1  0
 13  8  1  0
M  END
>  <zinc_id>  (1) 
ZINC000001531009

>  <smiles>  (1) 
O=P(O)(O)C(O)(Cc1cccnc1)P(=O)(O)O

$$$$
