
     RDKit          3D

 27 30  0  0  0  0  0  0  0  0999 V2000
    6.6829    2.5694    0.2016 C   0  0  0  0  0  0  0  0  0  0  0  0
    6.4046    1.0862    0.1161 C   0  0  0  0  0  0  0  0  0  0  0  0
    5.0167    0.9016    0.2848 O   0  0  0  0  0  0  0  0  0  0  0  0
    4.3729   -0.3043    0.2706 C   0  0  0  0  0  0  0  0  0  0  0  0
    5.0701   -1.3403    0.0928 O   0  0  0  0  0  0  0  0  0  0  0  0
    2.9746   -0.3943    0.4484 N   0  0  0  0  0  0  0  0  0  0  0  0
    2.2216    0.8250    0.6487 C   0  0  0  0  0  0  0  0  0  0  0  0
    1.1238    0.8921   -0.3908 C   0  0  0  0  0  0  0  0  0  0  0  0
    0.3399   -0.3686   -0.2928 C   0  0  0  0  0  0  0  0  0  0  0  0
   -0.9675   -0.3783   -0.1348 C   0  0  0  0  0  0  0  0  0  0  0  0
   -1.6409    0.9108   -0.0571 C   0  0  0  0  0  0  0  0  0  0  0  0
   -0.7987    1.9703   -0.2728 C   0  0  0  0  0  0  0  0  0  0  0  0
   -1.2393    3.2874   -0.2435 C   0  0  0  0  0  0  0  0  0  0  0  0
   -2.5724    3.5335    0.0121 C   0  0  0  0  0  0  0  0  0  0  0  0
   -3.2349    5.1588    0.0721 Cl  0  0  0  0  0  0  0  0  0  0  0  0
   -3.4406    2.4664    0.2334 C   0  0  0  0  0  0  0  0  0  0  0  0
   -2.9927    1.1690    0.2018 C   0  0  0  0  0  0  0  0  0  0  0  0
   -4.0750    0.1670    0.4636 C   0  0  0  0  0  0  0  0  0  0  0  0
   -4.0429   -0.9912   -0.4894 C   0  0  0  0  0  0  0  0  0  0  0  0
   -2.9870   -1.9858   -0.1990 C   0  0  0  0  0  0  0  0  0  0  0  0
   -3.4436   -3.2770   -0.0831 C   0  0  0  0  0  0  0  0  0  0  0  0
   -2.5349   -4.2683    0.1843 C   0  0  0  0  0  0  0  0  0  0  0  0
   -1.2128   -3.9383    0.3254 C   0  0  0  0  0  0  0  0  0  0  0  0
   -0.7840   -2.6774    0.2097 N   0  0  0  0  0  0  0  0  0  0  0  0
   -1.6284   -1.6713   -0.0505 C   0  0  0  0  0  0  0  0  0  0  0  0
    1.0563   -1.6675   -0.3772 C   0  0  0  0  0  0  0  0  0  0  0  0
    2.3325   -1.6748    0.4279 C   0  0  0  0  0  0  0  0  0  0  0  0
  1  2  1  0
  2  3  1  0
  3  4  1  0
  4  5  2  0
  4  6  1  0
  6  7  1  0
  7  8  1  0
  8  9  1  0
  9 10  2  3
 10 11  1  0
 11 12  2  0
 12 13  1  0
 13 14  2  0
 14 15  1  0
 14 16  1  0
 16 17  2  0
 17 18  1  0
 18 19  1  0
 19 20  1  0
 20 21  2  0
 21 22  1  0
 22 23  2  0
 23 24  1  0
 24 25  2  0
  9 26  1  0
 26 27  1  0
 27  6  1  0
 25 10  1  0
 17 11  1  0
 25 20  1  0
M  END
>  <zinc_id>  (1) 
ZINC000000537931

>  <smiles>  (1) 
CCOC(=O)N1CCC(=C2c3ccc(Cl)cc3CCc3cccnc32)CC1

$$$$
