
     RDKit          3D

 12 12  0  0  0  0  0  0  0  0999 V2000
   -2.9106    1.0723    1.2745 C   0  0  0  0  0  0  0  0  0  0  0  0
   -1.9078    0.8906    0.4714 N   0  0  0  0  0  0  0  0  0  0  0  0
   -1.5544   -0.6553    0.5054 C   0  0  1  0  0  0  0  0  0  0  0  0
   -3.0179   -1.0815   -0.0975 C   0  0  0  0  0  0  0  0  0  0  0  0
   -0.8395   -0.5966   -1.0862 C   0  0  2  0  0  0  0  0  0  0  0  0
   -0.4941   -2.0958   -1.0640 O   0  0  0  0  0  0  0  0  0  0  0  0
    0.5988   -0.0784   -0.5464 C   0  0  0  0  0  0  0  0  0  0  0  0
    1.2038   -0.6603    0.4628 C   0  0  0  0  0  0  0  0  0  0  0  0
    2.4254   -0.1720    0.8718 C   0  0  0  0  0  0  0  0  0  0  0  0
    3.0243    0.9005    0.2563 C   0  0  0  0  0  0  0  0  0  0  0  0
    2.3565    1.4775   -0.7940 C   0  0  0  0  0  0  0  0  0  0  0  0
    1.1154    0.9991   -1.2269 C   0  0  0  0  0  0  0  0  0  0  0  0
  1  2  1  0
  2  3  1  0
  3  4  1  6
  3  5  1  0
  5  6  1  1
  5  7  1  0
  7  8  2  0
  8  9  1  0
  9 10  2  0
 10 11  1  0
 11 12  2  0
 12  7  1  0
M  END
>  <zinc_id>  (1) 
ZINC000000074836

>  <smiles>  (1) 
CN[C@@H](C)[C@H](O)c1ccccc1

$$$$
