
     RDKit          3D

 25 25  0  0  0  0  0  0  0  0999 V2000
   -7.8866    1.2980    1.6531 C   0  0  0  0  0  0  0  0  0  0  0  0
   -6.8208    1.9575    1.0548 C   0  0  0  0  0  0  0  0  0  0  0  0
   -5.4707    1.5566    1.6066 C   0  0  0  0  0  0  0  0  0  0  0  0
   -5.2087    0.0786    1.4190 C   0  0  0  0  0  0  0  0  0  0  0  0
   -5.2323   -0.2901   -0.0380 C   0  0  0  0  0  0  0  0  0  0  0  0
   -4.0185    0.6404   -0.6903 C   0  0  2  0  0  0  0  0  0  0  0  0
   -4.2726    0.0791   -2.0902 O   0  0  0  0  0  0  0  0  0  0  0  0
   -2.8937   -0.4787   -0.3677 C   0  0  0  0  0  0  0  0  0  0  0  0
   -1.7266    0.0687   -0.3823 C   0  0  0  0  0  0  0  0  0  0  0  0
   -0.3972   -0.7000   -0.1143 C   0  0  1  0  0  0  0  0  0  0  0  0
   -0.9662   -2.2119   -0.5675 C   0  0  2  0  0  0  0  0  0  0  0  0
   -0.1177   -2.9070    0.4910 O   0  0  0  0  0  0  0  0  0  0  0  0
    0.1023   -2.4966   -1.7472 C   0  0  0  0  0  0  0  0  0  0  0  0
    1.1707   -1.5567   -1.5751 C   0  0  0  0  0  0  0  0  0  0  0  0
    2.2976   -1.7897   -1.4670 O   0  0  0  0  0  0  0  0  0  0  0  0
    0.2450   -0.3301   -1.6034 C   0  0  2  0  0  0  0  0  0  0  0  0
    1.2239    0.7982   -1.0831 C   0  0  0  0  0  0  0  0  0  0  0  0
    2.1944    0.3161   -0.0820 C   0  0  0  0  0  0  0  0  0  0  0  0
    3.1276    1.2752    0.4774 C   0  0  0  0  0  0  0  0  0  0  0  0
    4.0204    0.6033    1.4856 C   0  0  0  0  0  0  0  0  0  0  0  0
    4.7798   -0.4714    0.7525 C   0  0  0  0  0  0  0  0  0  0  0  0
    5.5779    0.2088   -0.3377 C   0  0  0  0  0  0  0  0  0  0  0  0
    6.4969    1.1732    0.3097 C   0  0  0  0  0  0  0  0  0  0  0  0
    7.2589    1.8553   -0.3878 O   0  0  0  0  0  0  0  0  0  0  0  0
    6.5164    1.3233    1.6850 O   0  0  0  0  0  0  0  0  0  0  0  0
  1  2  1  0
  2  3  1  0
  3  4  1  0
  4  5  1  0
  5  6  1  0
  6  7  1  6
  6  8  1  0
  8  9  2  0
 10  9  1  6
 10 11  1  0
 11 12  1  1
 11 13  1  0
 13 14  1  0
 14 15  2  0
 14 16  1  0
 16 17  1  1
 17 18  1  0
 18 19  1  0
 19 20  1  0
 20 21  1  0
 21 22  1  0
 22 23  1  0
 23 24  2  0
 23 25  1  0
 16 10  1  0
M  END
>  <zinc_id>  (1) 
ZINC000003813088

>  <smiles>  (1) 
CCCCC[C@H](O)/C=C/[C@H]1[C@H](O)CC(=O)[C@@H]1CCCCCCC(=O)O

$$$$
