
     RDKit          2D

 42 48  0  0  0  0  0  0  0  0999 V2000
    8.6507   -0.4440    0.0000 C   0  0  0  0  0  0  0  0  0  0  0  0
    7.3026   -1.1017    0.0000 O   0  0  0  0  0  0  0  0  0  0  0  0
    6.0589   -0.2631    0.0000 C   0  0  0  0  0  0  0  0  0  0  0  0
    4.7108   -0.9208    0.0000 C   0  0  0  0  0  0  0  0  0  0  0  0
    3.4672   -0.0822    0.0000 C   0  0  0  0  0  0  0  0  0  0  0  0
    2.1191   -0.7400    0.0000 C   0  0  0  0  0  0  0  0  0  0  0  0
    0.8754    0.0986    0.0000 C   0  0  0  0  0  0  0  0  0  0  0  0
    0.9798    1.5950    0.0000 C   0  0  0  0  0  0  0  0  0  0  0  0
   -0.2639    2.4336    0.0000 C   0  0  0  0  0  0  0  0  0  0  0  0
   -1.6120    1.7759    0.0000 C   0  0  0  0  0  0  0  0  0  0  0  0
   -1.7164    0.2795    0.0000 C   0  0  0  0  0  0  0  0  0  0  0  0
   -0.4727   -0.5591    0.0000 C   0  0  0  0  0  0  0  0  0  0  0  0
   -0.5771   -2.0555    0.0000 C   0  0  0  0  0  0  0  0  0  0  0  0
   -1.9252   -2.7132    0.0000 O   0  0  0  0  0  0  0  0  0  0  0  0
   -3.1689   -1.8746    0.0000 C   0  0  0  0  0  0  0  0  0  0  0  0
   -3.0645   -0.3783    0.0000 O   0  0  0  0  0  0  0  0  0  0  0  0
   -4.3081    0.4604    0.0000 C   0  0  0  0  0  0  0  0  0  0  0  0
   -4.2037    1.9567    0.0000 C   0  0  0  0  0  0  0  0  0  0  0  0
   -5.4474    2.7953    0.0000 O   0  0  0  0  0  0  0  0  0  0  0  0
   -6.7955    2.1376    0.0000 C   0  0  0  0  0  0  0  0  0  0  0  0
   -8.0392    2.9762    0.0000 C   0  0  0  0  0  0  0  0  0  0  0  0
   -6.8999    0.6412    0.0000 O   0  0  0  0  0  0  0  0  0  0  0  0
   -5.6562   -0.1974    0.0000 C   0  0  0  0  0  0  0  0  0  0  0  0
   -5.7607   -1.6938    0.0000 C   0  0  0  0  0  0  0  0  0  0  0  0
   -7.1088   -2.3515    0.0000 O   0  0  0  0  0  0  0  0  0  0  0  0
   -4.5170   -2.5324    0.0000 C   0  0  0  0  0  0  0  0  0  0  0  0
   -4.6214   -4.0287    0.0000 O   0  0  0  0  0  0  0  0  0  0  0  0
    0.6666   -2.8941    0.0000 C   0  0  0  0  0  0  0  0  0  0  0  0
    0.8755   -4.3795    0.0000 C   0  0  0  0  0  0  0  0  0  0  0  0
    2.3528   -4.6397    0.0000 O   0  0  0  0  0  0  0  0  0  0  0  0
    3.0568   -3.3152    0.0000 C   0  0  0  0  0  0  0  0  0  0  0  0
    4.5422   -3.1062    0.0000 O   0  0  0  0  0  0  0  0  0  0  0  0
    2.0147   -2.2363    0.0000 C   0  0  0  0  0  0  0  0  0  0  0  0
   -2.6541    2.8547    0.0000 O   0  0  0  0  0  0  0  0  0  0  0  0
   -1.9501    4.1792    0.0000 C   0  0  0  0  0  0  0  0  0  0  0  0
   -0.4728    3.9190    0.0000 O   0  0  0  0  0  0  0  0  0  0  0  0
    3.5716    1.4141    0.0000 C   0  0  0  0  0  0  0  0  0  0  0  0
    4.9197    2.0719    0.0000 C   0  0  0  0  0  0  0  0  0  0  0  0
    5.0241    3.5682    0.0000 O   0  0  0  0  0  0  0  0  0  0  0  0
    6.3722    4.2260    0.0000 C   0  0  0  0  0  0  0  0  0  0  0  0
    6.1634    1.2333    0.0000 C   0  0  0  0  0  0  0  0  0  0  0  0
    7.5115    1.8910    0.0000 O   0  0  0  0  0  0  0  0  0  0  0  0
  1  2  1  0
  2  3  1  0
  3  4  2  0
  4  5  1  0
  6  5  1  1
  6  7  1  0
  7  8  2  0
  8  9  1  0
  9 10  2  0
 10 11  1  0
 11 12  2  0
 12 13  1  0
 13 14  1  6
 15 14  1  1
 15 16  1  0
 16 17  1  0
 17 18  1  1
 18 19  1  0
 19 20  1  0
 20 21  1  6
 20 22  1  0
 23 22  1  6
 23 24  1  0
 24 25  1  1
 24 26  1  0
 26 27  1  6
 13 28  1  0
 28 29  1  6
 29 30  1  0
 30 31  1  0
 31 32  2  0
 33 31  1  1
 10 34  1  0
 34 35  1  0
 35 36  1  0
  5 37  2  0
 37 38  1  0
 38 39  1  0
 39 40  1  0
 38 41  2  0
 41 42  1  0
 41  3  1  0
 33  6  1  0
 12  7  1  0
 26 15  1  0
 33 28  1  0
 36  9  1  0
 23 17  1  0
M  END
>  <zinc_id>  (1) 
ZINC000003938684

>  <smiles>  (1) 
COc1cc([C@@H]2c3cc4c(cc3[C@@H](O[C@@H]3O[C@@H]5CO[C@@H](C)O[C@H]5[C@H](O)[C@H]3O)[C@H]3COC(=O)[C@H]23)OCO4)cc(OC)c1O

$$$$
