
     RDKit          2D

 12 12  0  0  0  0  0  0  0  0999 V2000
    1.4860   -2.8220    0.0000 O   0  0  0  0  0  0  0  0  0  0  0  0
    0.8326   -1.4718    0.0000 C   0  0  0  0  0  0  0  0  0  0  0  0
   -0.6635   -1.3626    0.0000 O   0  0  0  0  0  0  0  0  0  0  0  0
   -1.3169   -0.0124    0.0000 C   0  0  0  0  0  0  0  0  0  0  0  0
   -2.8129    0.0968    0.0000 C   0  0  0  0  0  0  0  0  0  0  0  0
   -3.6555   -1.1442    0.0000 O   0  0  0  0  0  0  0  0  0  0  0  0
   -0.4743    1.2286    0.0000 C   0  0  0  0  0  0  0  0  0  0  0  0
   -1.1277    2.5788    0.0000 O   0  0  0  0  0  0  0  0  0  0  0  0
    1.0217    1.1194    0.0000 C   0  0  0  0  0  0  0  0  0  0  0  0
    1.8643    2.3604    0.0000 O   0  0  0  0  0  0  0  0  0  0  0  0
    1.6751   -0.2308    0.0000 C   0  0  0  0  0  0  0  0  0  0  0  0
    3.1712   -0.3400    0.0000 O   0  0  0  0  0  0  0  0  0  0  0  0
  1  2  2  0
  2  3  1  0
  3  4  1  0
  4  5  1  6
  5  6  1  0
  4  7  1  0
  7  8  1  1
  7  9  1  0
  9 10  1  6
  9 11  1  0
 11 12  1  1
 11  2  1  0
M  END
>  <zinc_id>  (1) 
ZINC000002539702

>  <smiles>  (1) 
O=C1O[C@H](CO)[C@@H](O)[C@H](O)[C@H]1O

$$$$
