
     RDKit          3D

 22 24  0  0  0  0  0  0  0  0999 V2000
    3.1130   -2.4579   -0.7786 C   0  0  0  0  0  0  0  0  0  0  0  0
    3.8313   -1.9322    0.3384 N   0  0  0  0  0  0  0  0  0  0  0  0
    4.5608   -0.7529    0.0288 C   0  0  0  0  0  0  0  0  0  0  0  0
    2.9898   -1.7704    1.4622 C   0  0  0  0  0  0  0  0  0  0  0  0
    1.9572   -0.7338    1.2658 C   0  0  0  0  0  0  0  0  0  0  0  0
    1.0097   -0.9691    0.1511 C   0  0  0  0  0  0  0  0  0  0  0  0
   -0.0186    0.0037   -0.0050 N   0  0  0  0  0  0  0  0  0  0  0  0
    0.3227    1.3584   -0.2994 C   0  0  0  0  0  0  0  0  0  0  0  0
    1.5805    1.4573   -0.8430 C   0  0  0  0  0  0  0  0  0  0  0  0
    2.0701    2.6858   -1.1859 C   0  0  0  0  0  0  0  0  0  0  0  0
    1.3221    3.8169   -0.9942 C   0  0  0  0  0  0  0  0  0  0  0  0
    0.0677    3.6940   -0.4498 C   0  0  0  0  0  0  0  0  0  0  0  0
   -0.4571    2.4938   -0.0950 C   0  0  0  0  0  0  0  0  0  0  0  0
   -1.8319    2.5426    0.4770 C   0  0  0  0  0  0  0  0  0  0  0  0
   -2.7756    1.6359   -0.3020 C   0  0  0  0  0  0  0  0  0  0  0  0
   -2.5449    0.2113    0.0310 C   0  0  0  0  0  0  0  0  0  0  0  0
   -3.7453   -0.4683    0.2367 C   0  0  0  0  0  0  0  0  0  0  0  0
   -3.7082   -1.8085    0.5591 C   0  0  0  0  0  0  0  0  0  0  0  0
   -2.5345   -2.4919    0.6835 C   0  0  0  0  0  0  0  0  0  0  0  0
   -2.5005   -4.2147    1.1003 Cl  0  0  0  0  0  0  0  0  0  0  0  0
   -1.3477   -1.8190    0.4796 C   0  0  0  0  0  0  0  0  0  0  0  0
   -1.3604   -0.4810    0.1570 C   0  0  0  0  0  0  0  0  0  0  0  0
  1  2  1  0
  2  3  1  0
  2  4  1  0
  4  5  1  0
  5  6  1  0
  6  7  1  0
  7  8  1  0
  8  9  2  0
  9 10  1  0
 10 11  2  0
 11 12  1  0
 12 13  2  0
 13 14  1  0
 14 15  1  0
 15 16  1  0
 16 17  2  0
 17 18  1  0
 18 19  2  0
 19 20  1  0
 19 21  1  0
 21 22  2  0
 22  7  1  0
 13  8  1  0
 22 16  1  0
M  END
>  <zinc_id>  (1) 
ZINC000000020248

>  <smiles>  (1) 
CN(C)CCCN1c2ccccc2CCc2ccc(Cl)cc21

$$$$
