
     RDKit          3D

 23 23  0  0  0  0  0  0  0  0999 V2000
   -3.0802    1.2835    2.7089 C   0  0  0  0  0  0  0  0  0  0  0  0
   -2.8923    0.8808    1.6871 C   0  0  0  0  0  0  0  0  0  0  0  0
   -1.4247    0.6798    1.3745 C   0  0  0  0  0  0  0  0  0  0  0  0
   -1.0345   -0.3298    2.4792 C   0  0  0  0  0  0  0  0  0  0  0  0
   -1.9032   -1.5507    2.2809 C   0  0  0  0  0  0  0  0  0  0  0  0
   -1.3809   -0.3108    0.0544 C   0  0  1  0  0  0  0  0  0  0  0  0
   -2.2261    0.7370   -0.8247 N   0  0  0  0  0  0  0  0  0  0  0  0
   -3.1228    0.1927   -1.7252 C   0  0  0  0  0  0  0  0  0  0  0  0
   -3.9302    1.1172   -2.5647 C   0  0  0  0  0  0  0  0  0  0  0  0
   -3.2330   -1.0528   -1.8122 O   0  0  0  0  0  0  0  0  0  0  0  0
    0.0579    0.2695   -0.5978 C   0  0  1  0  0  0  0  0  0  0  0  0
    1.1162   -0.0457    0.6431 C   0  0  2  0  0  0  0  0  0  0  0  0
    1.1731    1.4807    1.0731 N   0  0  0  0  0  0  0  0  0  0  0  0
    2.2331    1.8603    1.6495 C   0  0  0  0  0  0  0  0  0  0  0  0
    3.2909    0.9453    1.8813 N   0  0  0  0  0  0  0  0  0  0  0  0
    2.2995    3.2205    2.0400 N   0  0  0  0  0  0  0  0  0  0  0  0
    2.3394    0.1937   -0.4891 C   0  0  0  0  0  0  0  0  0  0  0  0
    1.9661   -1.3724   -0.7000 C   0  0  2  0  0  0  0  0  0  0  0  0
    2.8643   -1.6224   -1.9422 C   0  0  0  0  0  0  0  0  0  0  0  0
    2.3506   -2.0608   -2.9529 O   0  0  0  0  0  0  0  0  0  0  0  0
    4.1914   -1.3486   -1.8695 O   0  0  0  0  0  0  0  0  0  0  0  0
    0.5160   -1.0136   -1.5537 C   0  0  1  0  0  0  0  0  0  0  0  0
   -0.1706   -2.1534   -0.8400 O   0  0  0  0  0  0  0  0  0  0  0  0
  1  2  1  0
  2  3  1  0
  3  4  1  0
  4  5  1  0
  3  6  1  0
  6  7  1  6
  7  8  1  0
  8  9  1  0
  8 10  2  0
 11  6  1  1
 11 12  1  0
 12 13  1  0
 13 14  2  3
 14 15  1  0
 14 16  1  0
 12 17  1  6
 17 18  1  0
 18 19  1  6
 19 20  2  0
 19 21  1  0
 18 22  1  0
 22 23  1  1
 22 11  1  0
M  END
>  <zinc_id>  (1) 
ZINC000005819214

>  <smiles>  (1) 
CCC(CC)[C@@H](NC(C)=O)[C@@H]1[C@H](O)[C@@H](C(=O)O)C[C@H]1N=C(N)N

$$$$
