
     RDKit          3D

 20 23  0  0  0  0  0  0  0  0999 V2000
    2.7692   -2.2398   -0.5051 C   0  0  0  0  0  0  0  0  0  0  0  0
    2.6537   -1.2107   -0.2775 N   0  0  0  0  0  0  0  0  0  0  0  0
    3.8217   -0.6122    0.3274 C   0  0  0  0  0  0  0  0  0  0  0  0
    3.5745    0.7050    1.0076 C   0  0  0  0  0  0  0  0  0  0  0  0
    2.1973    1.1973    0.7945 C   0  0  0  0  0  0  0  0  0  0  0  0
    2.0015    2.5623    0.7873 C   0  0  0  0  0  0  0  0  0  0  0  0
    0.7500    3.0909    0.5696 C   0  0  0  0  0  0  0  0  0  0  0  0
   -0.2992    2.2323    0.3573 C   0  0  0  0  0  0  0  0  0  0  0  0
   -0.0630    0.8231    0.3689 C   0  0  0  0  0  0  0  0  0  0  0  0
    1.1395    0.3231    0.5838 C   0  0  0  0  0  0  0  0  0  0  0  0
    1.4964   -1.1410    0.7617 C   0  0  1  0  0  0  0  0  0  0  0  0
    0.4510   -1.9535   -0.0845 C   0  0  0  0  0  0  0  0  0  0  0  0
   -0.8617   -1.3764   -0.1442 C   0  0  0  0  0  0  0  0  0  0  0  0
   -1.8885   -2.2655   -0.4352 C   0  0  0  0  0  0  0  0  0  0  0  0
   -3.1893   -1.8025   -0.5898 C   0  0  0  0  0  0  0  0  0  0  0  0
   -3.4842   -0.4842   -0.4614 C   0  0  0  0  0  0  0  0  0  0  0  0
   -4.7521    0.0415   -0.6035 O   0  0  0  0  0  0  0  0  0  0  0  0
   -2.4637    0.3973   -0.1711 C   0  0  0  0  0  0  0  0  0  0  0  0
   -2.6854    1.7579   -0.0248 O   0  0  0  0  0  0  0  0  0  0  0  0
   -1.1677   -0.0449   -0.0131 C   0  0  0  0  0  0  0  0  0  0  0  0
  1  2  1  0
  2  3  1  0
  3  4  1  0
  4  5  1  0
  5  6  2  0
  6  7  1  0
  7  8  2  0
  8  9  1  0
  9 10  2  0
 10 11  1  0
 11 12  1  6
 12 13  1  0
 13 14  2  0
 14 15  1  0
 15 16  2  0
 16 17  1  0
 16 18  1  0
 18 19  1  0
 18 20  2  0
 11  2  1  0
 20 13  1  0
 10  5  1  0
 20  9  1  0
M  END
>  <zinc_id>  (1) 
ZINC000000009073

>  <smiles>  (1) 
CN1CCc2cccc3c2[C@H]1Cc1ccc(O)c(O)c1-3

$$$$
