
     RDKit          3D

 24 28  0  0  0  0  0  0  0  0999 V2000
   -4.9653   -1.8702    0.3338 O   0  0  0  0  0  0  0  0  0  0  0  0
   -3.5980   -1.6435    0.3106 C   0  0  0  0  0  0  0  0  0  0  0  0
   -2.7925   -2.5449    0.9746 C   0  0  0  0  0  0  0  0  0  0  0  0
   -1.3957   -2.4000    1.0071 C   0  0  0  0  0  0  0  0  0  0  0  0
   -0.8487   -1.3220    0.3509 C   0  0  0  0  0  0  0  0  0  0  0  0
   -1.6831   -0.4359   -0.3048 C   0  0  0  0  0  0  0  0  0  0  0  0
   -3.0357   -0.5512   -0.3531 C   0  0  0  0  0  0  0  0  0  0  0  0
   -0.8721    0.6664   -0.9307 C   0  0  1  0  0  0  0  0  0  0  0  0
   -1.7377    1.5791   -1.6848 C   0  0  0  0  0  0  0  0  0  0  0  0
   -2.1210    2.7951   -0.8773 C   0  0  0  0  0  0  0  0  0  0  0  0
   -2.3909    2.5468    0.5604 C   0  0  0  0  0  0  0  0  0  0  0  0
   -1.4457    1.5771    1.2320 C   0  0  0  0  0  0  0  0  0  0  0  0
   -0.3154    1.3878    0.2192 C   0  0  2  0  0  0  0  0  0  0  0  0
    0.2634    2.6121   -0.0242 O   0  0  0  0  0  0  0  0  0  0  0  0
    0.7926    0.4692    0.9969 C   0  0  1  0  0  0  0  0  0  0  0  0
    0.5790   -0.9768    0.2301 C   0  0  0  0  0  0  0  0  0  0  0  0
    1.9791    0.8921   -0.0161 N   0  0  0  0  0  0  0  0  0  0  0  0
    2.9979   -0.0544    0.4583 C   0  0  0  0  0  0  0  0  0  0  0  0
    4.2811    0.0802   -0.3058 C   0  0  0  0  0  0  0  0  0  0  0  0
    5.2961   -0.9137    0.2190 C   0  0  0  0  0  0  0  0  0  0  0  0
    4.9425   -1.8990   -0.8812 C   0  0  0  0  0  0  0  0  0  0  0  0
    4.2144   -0.7595   -1.5753 C   0  0  0  0  0  0  0  0  0  0  0  0
    1.5627    0.6922   -1.2980 C   0  0  0  0  0  0  0  0  0  0  0  0
    0.2929    0.0731   -1.6820 C   0  0  0  0  0  0  0  0  0  0  0  0
  1  2  1  0
  2  3  2  0
  3  4  1  0
  4  5  2  0
  5  6  1  0
  6  7  2  0
  6  8  1  0
  8  9  1  6
  9 10  1  0
 10 11  1  0
 11 12  1  0
 12 13  1  0
 13 14  1  6
 13 15  1  0
 15 16  1  6
 15 17  1  0
 17 18  1  0
 18 19  1  0
 19 20  1  0
 20 21  1  0
 21 22  1  0
 17 23  1  0
 23 24  1  0
  7  2  1  0
 13  8  1  0
 22 19  1  0
 16  5  1  0
 24  8  1  0
M  END
>  <zinc_id>  (1) 
ZINC000003812988

>  <smiles>  (1) 
Oc1ccc2c(c1)[C@@]13CCCC[C@@]1(O)[C@@H](C2)N(CC1CCC1)CC3

$$$$
