
     RDKit          3D

  9  8  0  0  0  0  0  0  0  0999 V2000
    2.6027    1.0669    0.4242 C   0  0  0  0  0  0  0  0  0  0  0  0
    2.4706   -0.0457   -0.2610 C   0  0  0  0  0  0  0  0  0  0  0  0
    0.9630   -0.2828   -0.8523 C   0  0  1  0  0  0  0  0  0  0  0  0
    1.1815   -1.8720   -0.9465 N   0  0  0  0  0  0  0  0  0  0  0  0
    0.3009   -0.3674    0.6772 C   0  0  0  0  0  0  0  0  0  0  0  0
   -1.1461   -0.5908    0.4894 C   0  0  0  0  0  0  0  0  0  0  0  0
   -1.8719    0.4210   -0.2457 C   0  0  0  0  0  0  0  0  0  0  0  0
   -1.2677    1.4227   -0.6851 O   0  0  0  0  0  0  0  0  0  0  0  0
   -3.2330    0.2482   -0.4439 O   0  0  0  0  0  0  0  0  0  0  0  0
  1  2  2  0
  2  3  1  0
  3  4  1  1
  3  5  1  0
  5  6  1  0
  6  7  1  0
  7  8  2  0
  7  9  1  0
M  END
>  <zinc_id>  (1) 
ZINC000003798750

>  <smiles>  (1) 
C=C[C@@H](N)CCC(=O)O

$$$$
