
     RDKit          3D

 17 18  0  0  0  0  0  0  0  0999 V2000
   -4.7602    1.8458    1.0227 N   0  0  0  0  0  0  0  0  0  0  0  0
   -3.6409    1.0602    0.5719 C   0  0  0  0  0  0  0  0  0  0  0  0
   -3.1527    1.1845   -0.7014 C   0  0  0  0  0  0  0  0  0  0  0  0
   -2.0803    0.4271   -1.1226 C   0  0  0  0  0  0  0  0  0  0  0  0
   -1.4555   -0.4766   -0.3019 C   0  0  0  0  0  0  0  0  0  0  0  0
   -0.0971   -1.4187   -0.8754 S   0  0  0  0  0  0  0  0  0  0  0  0
   -0.0814   -2.7558   -0.1873 O   0  0  0  0  0  0  0  0  0  0  0  0
   -0.2670   -1.6136   -2.3511 O   0  0  0  0  0  0  0  0  0  0  0  0
    1.4159   -0.5849   -0.5729 C   0  0  0  0  0  0  0  0  0  0  0  0
    1.8685    0.2651   -1.5746 C   0  0  0  0  0  0  0  0  0  0  0  0
    3.0309    0.9519   -1.4260 C   0  0  0  0  0  0  0  0  0  0  0  0
    3.7722    0.8133   -0.2830 C   0  0  0  0  0  0  0  0  0  0  0  0
    4.9857    1.5292   -0.1260 N   0  0  0  0  0  0  0  0  0  0  0  0
    3.3111   -0.0428    0.7196 C   0  0  0  0  0  0  0  0  0  0  0  0
    2.1323   -0.7418    0.5737 C   0  0  0  0  0  0  0  0  0  0  0  0
   -1.9474   -0.6048    0.9878 C   0  0  0  0  0  0  0  0  0  0  0  0
   -3.0342    0.1618    1.4168 C   0  0  0  0  0  0  0  0  0  0  0  0
  1  2  1  0
  2  3  2  0
  3  4  1  0
  4  5  2  0
  5  6  1  0
  6  7  2  0
  6  8  2  0
  6  9  1  0
  9 10  2  0
 10 11  1  0
 11 12  2  0
 12 13  1  0
 12 14  1  0
 14 15  2  0
  5 16  1  0
 16 17  2  0
 17  2  1  0
 15  9  1  0
M  END
>  <zinc_id>  (1) 
ZINC000000006310

>  <smiles>  (1) 
Nc1ccc(S(=O)(=O)c2ccc(N)cc2)cc1

$$$$
