
     RDKit          3D

 27 26  0  0  0  0  0  0  0  0999 V2000
    6.4587    1.8582   -2.6391 C   0  0  0  0  0  0  0  0  0  0  0  0
    6.1817    1.1152   -2.3000 C   0  0  0  0  0  0  0  0  0  0  0  0
    4.8713    0.4676   -1.9520 C   0  0  0  0  0  0  0  0  0  0  0  0
    5.1186   -0.8930   -1.3681 C   0  0  0  0  0  0  0  0  0  0  0  0
    5.9144   -0.9410   -0.1586 C   0  0  0  0  0  0  0  0  0  0  0  0
    5.4087   -0.3136    1.0636 C   0  0  0  0  0  0  0  0  0  0  0  0
    4.1929   -0.8362    1.6775 C   0  0  0  0  0  0  0  0  0  0  0  0
    2.8883   -0.8033    1.0187 C   0  0  0  0  0  0  0  0  0  0  0  0
    2.3431    0.5729    0.7532 C   0  0  0  0  0  0  0  0  0  0  0  0
    2.1876    1.3078    2.0646 C   0  0  0  0  0  0  0  0  0  0  0  0
    1.2190    0.5248    2.9561 C   0  0  0  0  0  0  0  0  0  0  0  0
   -0.0903    0.4611    2.1981 C   0  0  0  0  0  0  0  0  0  0  0  0
   -1.0767   -0.3145    3.0629 C   0  0  0  0  0  0  0  0  0  0  0  0
   -0.6079   -1.7045    3.3520 C   0  0  0  0  0  0  0  0  0  0  0  0
   -0.4067   -2.5697    2.1427 C   0  0  0  0  0  0  0  0  0  0  0  0
   -1.7056   -2.7306    1.3926 C   0  0  0  0  0  0  0  0  0  0  0  0
   -2.1432   -1.4780    0.9974 O   0  0  0  0  0  0  0  0  0  0  0  0
   -3.5956   -1.5478    0.1466 P   0  0  1  0  0  0  0  0  0  0  0  0
   -3.3929   -2.3503   -1.1161 O   0  0  0  0  0  0  0  0  0  0  0  0
   -4.8150   -2.3171    1.0348 O   0  0  0  0  0  0  0  0  0  0  0  0
   -4.0794    0.0389   -0.1788 O   0  0  0  0  0  0  0  0  0  0  0  0
   -2.9936    0.8789   -0.3725 C   0  0  0  0  0  0  0  0  0  0  0  0
   -3.5309    2.2652   -0.6551 C   0  0  0  0  0  0  0  0  0  0  0  0
   -4.3670    2.2839   -1.8353 N   0  0  0  0  0  0  0  0  0  0  0  0
   -4.7454    3.6807   -2.0523 C   0  0  0  0  0  0  0  0  0  0  0  0
   -5.5782    1.5347   -1.6150 C   0  0  0  0  0  0  0  0  0  0  0  0
   -3.6556    1.8097   -3.0135 C   0  0  0  0  0  0  0  0  0  0  0  0
  1  2  1  0
  2  3  1  0
  3  4  1  0
  4  5  1  0
  5  6  1  0
  6  7  1  0
  7  8  1  0
  8  9  1  0
  9 10  1  0
 10 11  1  0
 11 12  1  0
 12 13  1  0
 13 14  1  0
 14 15  1  0
 15 16  1  0
 16 17  1  0
 17 18  1  0
 18 19  2  0
 18 20  1  1
 18 21  1  0
 21 22  1  0
 22 23  1  0
 23 24  1  0
 24 25  1  0
 24 26  1  0
 24 27  1  0
M  CHG  1  24   1
M  END
>  <zinc_id>  (1) 
ZINC000008214614

>  <smiles>  (1) 
CCCCCCCCCCCCCCCCO[P@@](=O)(O)OCC[N+](C)(C)C

$$$$
