
     RDKit          3D

 20 22  0  0  0  0  0  0  0  0999 V2000
   -1.7003   -3.0817    1.7763 O   0  0  0  0  0  0  0  0  0  0  0  0
   -1.7098   -2.3932    0.8371 C   0  0  0  0  0  0  0  0  0  0  0  0
   -2.4907   -1.1670    0.7505 N   0  0  0  0  0  0  0  0  0  0  0  0
   -2.0385    0.0563    0.1016 C   0  0  0  0  0  0  0  0  0  0  0  0
   -3.0393    0.9826   -0.0902 C   0  0  0  0  0  0  0  0  0  0  0  0
   -2.7012    2.1755   -0.7008 C   0  0  0  0  0  0  0  0  0  0  0  0
   -1.4122    2.4392   -1.1070 C   0  0  0  0  0  0  0  0  0  0  0  0
   -1.0229    3.9757   -1.8833 Cl  0  0  0  0  0  0  0  0  0  0  0  0
   -0.3862    1.5166   -0.9223 C   0  0  0  0  0  0  0  0  0  0  0  0
   -0.7274    0.3447   -0.3203 C   0  0  0  0  0  0  0  0  0  0  0  0
    0.3841   -0.5927   -0.1298 C   0  0  0  0  0  0  0  0  0  0  0  0
    1.6683    0.1049    0.1172 C   0  0  0  0  0  0  0  0  0  0  0  0
    2.8250   -0.6150    0.2976 C   0  0  0  0  0  0  0  0  0  0  0  0
    4.0457    0.0224    0.5303 C   0  0  0  0  0  0  0  0  0  0  0  0
    4.1251    1.3951    0.5856 C   0  0  0  0  0  0  0  0  0  0  0  0
    2.9687    2.1196    0.4054 C   0  0  0  0  0  0  0  0  0  0  0  0
    1.7485    1.4710    0.1726 C   0  0  0  0  0  0  0  0  0  0  0  0
    0.4129   -1.8746   -0.1657 N   0  0  0  0  0  0  0  0  0  0  0  0
   -0.8105   -2.8197   -0.4445 C   0  0  1  0  0  0  0  0  0  0  0  0
   -0.1392   -4.0595    0.1898 O   0  0  0  0  0  0  0  0  0  0  0  0
  1  2  2  0
  2  3  1  0
  3  4  1  0
  4  5  2  0
  5  6  1  0
  6  7  2  0
  7  8  1  0
  7  9  1  0
  9 10  2  0
 10 11  1  0
 11 12  1  0
 12 13  2  0
 13 14  1  0
 14 15  2  0
 15 16  1  0
 16 17  2  0
 11 18  2  0
 18 19  1  0
 19 20  1  1
 19  2  1  0
 10  4  1  0
 17 12  1  0
M  END
>  <zinc_id>  (1) 
ZINC000000000575

>  <smiles>  (1) 
O=C1Nc2ccc(Cl)cc2C(c2ccccc2)=N[C@H]1O

$$$$
