
     RDKit          3D

 31 33  0  0  0  0  0  0  0  0999 V2000
   10.3208    1.9262   -0.3459 C   0  0  0  0  0  0  0  0  0  0  0  0
    8.9406    1.3793   -0.3163 C   0  0  0  0  0  0  0  0  0  0  0  0
    8.1475    1.5363   -1.4361 C   0  0  0  0  0  0  0  0  0  0  0  0
    6.8845    1.0507   -1.4448 N   0  0  0  0  0  0  0  0  0  0  0  0
    6.3531    0.4082   -0.3913 C   0  0  0  0  0  0  0  0  0  0  0  0
    4.9902   -0.1098   -0.4150 C   0  0  0  0  0  0  0  0  0  0  0  0
    4.3158    0.0629   -1.4620 O   0  0  0  0  0  0  0  0  0  0  0  0
    4.4140   -0.7855    0.6768 N   0  0  0  0  0  0  0  0  0  0  0  0
    3.0817   -1.3056    0.6867 C   0  0  0  0  0  0  0  0  0  0  0  0
    2.0910   -0.1658    0.4683 C   0  0  0  0  0  0  0  0  0  0  0  0
    0.6931   -0.6787    0.4738 C   0  0  0  0  0  0  0  0  0  0  0  0
   -0.0533   -0.7607    1.6294 C   0  0  0  0  0  0  0  0  0  0  0  0
   -1.3447   -1.2397    1.6037 C   0  0  0  0  0  0  0  0  0  0  0  0
   -1.9594   -1.6587    0.4430 C   0  0  0  0  0  0  0  0  0  0  0  0
   -3.6007   -2.2552    0.4841 S   0  0  0  0  0  0  0  0  0  0  0  0
   -3.8312   -3.2775   -0.6105 O   0  0  0  0  0  0  0  0  0  0  0  0
   -3.8686   -2.9907    1.7886 O   0  0  0  0  0  0  0  0  0  0  0  0
   -4.7532   -0.9960    0.2531 N   0  0  0  0  0  0  0  0  0  0  0  0
   -5.1723   -0.2531    1.2345 C   0  0  0  0  0  0  0  0  0  0  0  0
   -4.6725   -0.4867    2.5029 O   0  0  0  0  0  0  0  0  0  0  0  0
   -6.1244    0.7638    0.9567 N   0  0  0  0  0  0  0  0  0  0  0  0
   -6.9046    0.7156   -0.2815 C   0  0  0  0  0  0  0  0  0  0  0  0
   -7.8472    1.8670   -0.3907 C   0  0  0  0  0  0  0  0  0  0  0  0
   -7.1107    3.1615   -0.5756 C   0  0  0  0  0  0  0  0  0  0  0  0
   -6.2884    3.0960   -1.8477 C   0  0  0  0  0  0  0  0  0  0  0  0
   -5.2575    2.0037   -1.6733 C   0  0  0  0  0  0  0  0  0  0  0  0
   -5.9109    0.6600   -1.4188 C   0  0  0  0  0  0  0  0  0  0  0  0
   -1.2096   -1.5750   -0.7105 C   0  0  0  0  0  0  0  0  0  0  0  0
    0.0958   -1.0933   -0.6987 C   0  0  0  0  0  0  0  0  0  0  0  0
    7.1590    0.2581    0.7241 C   0  0  0  0  0  0  0  0  0  0  0  0
    8.4220    0.7426    0.7352 N   0  0  0  0  0  0  0  0  0  0  0  0
  1  2  1  0
  2  3  2  0
  3  4  1  0
  4  5  2  0
  5  6  1  0
  6  7  2  0
  6  8  1  0
  8  9  1  0
  9 10  1  0
 10 11  1  0
 11 12  2  0
 12 13  1  0
 13 14  2  0
 14 15  1  0
 15 16  2  0
 15 17  2  0
 15 18  1  0
 18 19  2  0
 19 20  1  0
 19 21  1  0
 21 22  1  0
 22 23  1  0
 23 24  1  0
 24 25  1  0
 25 26  1  0
 26 27  1  0
 14 28  1  0
 28 29  2  0
  5 30  1  0
 30 31  2  0
 31  2  1  0
 29 11  1  0
 27 22  1  0
M  END
>  <zinc_id>  (1) 
ZINC000000537795

>  <smiles>  (1) 
Cc1cnc(C(=O)NCCc2ccc(S(=O)(=O)/N=C(\O)NC3CCCCC3)cc2)cn1

$$$$
