
     RDKit          3D

 29 32  0  0  0  0  0  0  0  0999 V2000
    7.5204    0.5996   -1.2412 C   0  0  0  0  0  0  0  0  0  0  0  0
    6.4989    0.1876   -0.6481 C   0  0  0  0  0  0  0  0  0  0  0  0
    6.2304    0.7215    0.4891 O   0  0  0  0  0  0  0  0  0  0  0  0
    5.5696   -0.7755   -1.0077 O   0  0  0  0  0  0  0  0  0  0  0  0
    4.4814   -1.1169   -0.2396 C   0  0  0  0  0  0  0  0  0  0  0  0
    3.4698   -0.0717    0.0261 C   0  0  0  0  0  0  0  0  0  0  0  0
    3.5752    1.0292   -0.4453 O   0  0  0  0  0  0  0  0  0  0  0  0
    2.3040   -0.3869    0.8894 C   0  0  1  0  0  0  0  0  0  0  0  0
    2.4055   -1.6775    1.4142 O   0  0  0  0  0  0  0  0  0  0  0  0
    2.2458    0.6811    1.9630 C   0  0  0  0  0  0  0  0  0  0  0  0
    0.9310    1.4263    1.7872 C   0  0  0  0  0  0  0  0  0  0  0  0
    0.1057    0.0827    1.4713 C   0  0  1  0  0  0  0  0  0  0  0  0
   -1.1009    0.8226    0.5817 C   0  0  2  0  0  0  0  0  0  0  0  0
   -1.8764    1.3828    1.8531 C   0  0  0  0  0  0  0  0  0  0  0  0
   -3.1141    2.0287    1.1953 C   0  0  0  0  0  0  0  0  0  0  0  0
   -3.8878    0.8952    0.5646 C   0  0  0  0  0  0  0  0  0  0  0  0
   -5.1760    0.7925    0.8225 C   0  0  0  0  0  0  0  0  0  0  0  0
   -5.9722   -0.3063    0.2261 C   0  0  0  0  0  0  0  0  0  0  0  0
   -7.1512   -0.1640   -0.0662 O   0  0  0  0  0  0  0  0  0  0  0  0
   -5.1691   -1.5587    0.0396 C   0  0  0  0  0  0  0  0  0  0  0  0
   -4.0015   -1.1765   -0.8126 C   0  0  0  0  0  0  0  0  0  0  0  0
   -3.1605   -0.0628   -0.3260 C   0  0  1  0  0  0  0  0  0  0  0  0
   -2.6019    0.6537   -1.5099 C   0  0  0  0  0  0  0  0  0  0  0  0
   -1.9555   -0.6472    0.5614 C   0  0  1  0  0  0  0  0  0  0  0  0
   -1.0718   -1.2620   -0.5508 C   0  0  0  0  0  0  0  0  0  0  0  0
   -1.6490   -1.7097   -1.4939 O   0  0  0  0  0  0  0  0  0  0  0  0
    0.3932   -1.3107   -0.4832 C   0  0  0  0  0  0  0  0  0  0  0  0
    1.0326   -0.1732    0.1409 C   0  0  2  0  0  0  0  0  0  0  0  0
    1.1241    1.0963   -0.5952 C   0  0  0  0  0  0  0  0  0  0  0  0
  1  2  1  0
  2  3  2  0
  2  4  1  0
  4  5  1  0
  5  6  1  0
  6  7  2  0
  6  8  1  0
  8  9  1  1
  8 10  1  0
 10 11  1  0
 12 11  1  1
 12 13  1  0
 13 14  1  1
 14 15  1  0
 15 16  1  0
 16 17  2  0
 17 18  1  0
 18 19  2  0
 18 20  1  0
 20 21  1  0
 21 22  1  0
 22 23  1  6
 22 24  1  0
 24 25  1  6
 25 26  2  0
 25 27  1  0
 27 28  1  0
 28 29  1  6
 28  8  1  0
 28 12  1  0
 24 13  1  0
 22 16  1  0
M  END
>  <zinc_id>  (1) 
ZINC000003875334

>  <smiles>  (1) 
CC(=O)OCC(=O)[C@@]1(O)CC[C@H]2[C@@H]3CCC4=CC(=O)CC[C@]4(C)[C@H]3C(=O)C[C@@]21C

$$$$
