
     RDKit          2D

 12 11  0  0  0  0  0  0  0  0999 V2000
    4.5609    0.1026    0.0000 O   0  0  0  0  0  0  0  0  0  0  0  0
    3.1906    0.7126    0.0000 C   0  0  0  0  0  0  0  0  0  0  0  0
    1.9771   -0.1691    0.0000 C   0  0  0  0  0  0  0  0  0  0  0  0
    2.1340   -1.6609    0.0000 F   0  0  0  0  0  0  0  0  0  0  0  0
    0.6067    0.4409    0.0000 C   0  0  0  0  0  0  0  0  0  0  0  0
    0.4498    1.9327    0.0000 O   0  0  0  0  0  0  0  0  0  0  0  0
   -0.6067   -0.4409    0.0000 C   0  0  0  0  0  0  0  0  0  0  0  0
   -0.4498   -1.9327    0.0000 O   0  0  0  0  0  0  0  0  0  0  0  0
   -1.9771    0.1691    0.0000 C   0  0  0  0  0  0  0  0  0  0  0  0
   -2.1340    1.6609    0.0000 O   0  0  0  0  0  0  0  0  0  0  0  0
   -3.1906   -0.7126    0.0000 C   0  0  0  0  0  0  0  0  0  0  0  0
   -4.5609   -0.1026    0.0000 O   0  0  0  0  0  0  0  0  0  0  0  0
  1  2  2  0
  2  3  1  0
  3  4  1  6
  3  5  1  0
  5  6  1  6
  5  7  1  0
  7  8  1  6
  7  9  1  0
  9 10  1  1
  9 11  1  0
 11 12  1  0
M  END
>  <zinc_id>  (1) 
ZINC000001846431

>  <smiles>  (1) 
O=C[C@H](F)[C@@H](O)[C@H](O)[C@H](O)CO

$$$$
