
     RDKit          3D

 12 11  0  0  0  0  0  0  0  0999 V2000
    2.7742   -0.7947    0.6248 F   0  0  0  0  0  0  0  0  0  0  0  0
    2.2951   -0.3046   -0.5571 C   0  0  0  0  0  0  0  0  0  0  0  0
    0.9989   -0.6468   -0.8333 O   0  0  0  0  0  0  0  0  0  0  0  0
    0.0642   -0.2359    0.0690 C   0  0  0  0  0  0  0  0  0  0  0  0
    0.0122    1.2309    0.2290 C   0  0  0  0  0  0  0  0  0  0  0  0
   -0.2915    1.9073   -0.9454 F   0  0  0  0  0  0  0  0  0  0  0  0
    1.2410    1.7147    0.6382 F   0  0  0  0  0  0  0  0  0  0  0  0
   -0.9056    1.6527    1.1662 F   0  0  0  0  0  0  0  0  0  0  0  0
   -1.2430   -0.9302   -0.0549 C   0  0  0  0  0  0  0  0  0  0  0  0
   -2.1925   -0.5403    0.8315 F   0  0  0  0  0  0  0  0  0  0  0  0
   -1.0016   -2.2925    0.1790 F   0  0  0  0  0  0  0  0  0  0  0  0
   -1.7514   -0.7606   -1.3470 F   0  0  0  0  0  0  0  0  0  0  0  0
  1  2  1  0
  2  3  1  0
  3  4  1  0
  4  5  1  0
  5  6  1  0
  5  7  1  0
  5  8  1  0
  4  9  1  0
  9 10  1  0
  9 11  1  0
  9 12  1  0
M  END
>  <zinc_id>  (1) 
ZINC000001530810

>  <smiles>  (1) 
FCOC(C(F)(F)F)C(F)(F)F

$$$$
