
     RDKit          3D

 11 11  0  0  0  0  0  0  0  0999 V2000
    2.9915    0.7200   -0.8988 C   0  0  0  0  0  0  0  0  0  0  0  0
    2.1542    0.6647    0.2290 N   0  0  0  0  0  0  0  0  0  0  0  0
    2.0458   -0.8639    0.5573 C   0  0  2  0  0  0  0  0  0  0  0  0
    1.3171   -1.2259   -0.8725 C   0  0  0  0  0  0  0  0  0  0  0  0
    0.6844   -0.7092    1.4297 C   0  0  0  0  0  0  0  0  0  0  0  0
   -0.4157   -0.1763    0.7064 C   0  0  0  0  0  0  0  0  0  0  0  0
   -0.4203    1.1385    0.0735 C   0  0  0  0  0  0  0  0  0  0  0  0
   -1.3861    1.3229   -1.0374 C   0  0  0  0  0  0  0  0  0  0  0  0
   -2.6026    0.4906   -1.0390 C   0  0  0  0  0  0  0  0  0  0  0  0
   -2.5707   -0.7504   -0.2199 C   0  0  0  0  0  0  0  0  0  0  0  0
   -1.7975   -0.6110    1.0717 C   0  0  0  0  0  0  0  0  0  0  0  0
  1  2  1  0
  2  3  1  0
  3  4  1  6
  3  5  1  0
  5  6  1  0
  6  7  1  0
  7  8  1  0
  8  9  1  0
  9 10  1  0
 10 11  1  0
 11  6  1  0
M  END
>  <zinc_id>  (1) 
ZINC000001482094

>  <smiles>  (1) 
CN[C@H](C)CC1CCCCC1

$$$$
