
     RDKit          3D

 26 27  0  0  0  0  0  0  0  0999 V2000
    3.0283    2.0463   -2.2475 C   0  0  0  0  0  0  0  0  0  0  0  0
    3.2619    2.3265   -1.0809 C   0  0  0  0  0  0  0  0  0  0  0  0
    2.3623    1.7447   -0.0104 C   0  0  0  0  0  0  0  0  0  0  0  0
    2.6512    0.1121   -0.3325 C   0  0  2  0  0  0  0  0  0  0  0  0
    1.6769   -0.3439    0.8320 N   0  0  0  0  0  0  0  0  0  0  0  0
    0.3981    0.3008    0.1382 C   0  0  1  0  0  0  0  0  0  0  0  0
    0.5112   -0.7217   -1.1630 C   0  0  0  0  0  0  0  0  0  0  0  0
   -0.7098   -0.5796    0.9289 C   0  0  0  0  0  0  0  0  0  0  0  0
   -0.3029   -1.4268    1.7385 O   0  0  0  0  0  0  0  0  0  0  0  0
   -2.0246   -0.2816    0.6161 N   0  0  0  0  0  0  0  0  0  0  0  0
   -3.2391   -0.9171    1.2250 C   0  0  2  0  0  0  0  0  0  0  0  0
   -2.9101   -2.4552    1.0469 C   0  0  0  0  0  0  0  0  0  0  0  0
   -3.5261   -3.2699    1.7571 O   0  0  0  0  0  0  0  0  0  0  0  0
   -2.0018   -2.8872    0.1584 O   0  0  0  0  0  0  0  0  0  0  0  0
   -4.1791   -0.8516   -0.1389 C   0  0  0  0  0  0  0  0  0  0  0  0
   -4.1315    0.7310    0.1832 C   0  0  2  0  0  0  0  0  0  0  0  0
   -4.8063    1.1863   -1.2171 C   0  0  0  0  0  0  0  0  0  0  0  0
   -3.8468    1.9036   -2.0613 C   0  0  0  0  0  0  0  0  0  0  0  0
   -2.9689    0.8663   -2.7324 C   0  0  0  0  0  0  0  0  0  0  0  0
   -2.6664   -0.1585   -1.6558 C   0  0  0  0  0  0  0  0  0  0  0  0
   -2.4628    0.8164   -0.3531 C   0  0  2  0  0  0  0  0  0  0  0  0
    4.0373    0.0822    0.4284 C   0  0  0  0  0  0  0  0  0  0  0  0
    3.9632   -0.2779    1.5948 O   0  0  0  0  0  0  0  0  0  0  0  0
    5.2003    0.4190   -0.1372 O   0  0  0  0  0  0  0  0  0  0  0  0
    6.3838    0.3577    0.6387 C   0  0  0  0  0  0  0  0  0  0  0  0
    6.3017    1.2780    1.8439 C   0  0  0  0  0  0  0  0  0  0  0  0
  1  2  1  0
  2  3  1  0
  4  3  1  1
  4  5  1  0
  5  6  1  0
  6  7  1  6
  6  8  1  0
  8  9  2  0
  8 10  1  0
 10 11  1  0
 11 12  1  6
 12 13  2  0
 12 14  1  0
 11 15  1  0
 16 15  1  6
 16 17  1  0
 17 18  1  0
 18 19  1  0
 19 20  1  0
 21 20  1  6
  4 22  1  0
 22 23  2  0
 22 24  1  0
 24 25  1  0
 25 26  1  0
 21 10  1  0
 21 16  1  0
M  END
>  <zinc_id>  (1) 
ZINC000003812867

>  <smiles>  (1) 
CCC[C@H](N[C@@H](C)C(=O)N1[C@H](C(=O)O)C[C@@H]2CCCC[C@@H]21)C(=O)OCC

$$$$
