
     RDKit          2D

 36 40  0  0  0  0  0  0  0  0999 V2000
   -4.0552    4.4944    0.0000 C   0  0  0  0  0  0  0  0  0  0  0  0
   -3.1161    3.3248    0.0000 C   0  0  0  0  0  0  0  0  0  0  0  0
   -3.6595    1.9267    0.0000 C   0  0  0  0  0  0  0  0  0  0  0  0
   -4.8693    2.8134    0.0000 C   0  0  0  0  0  0  0  0  0  0  0  0
   -2.1684    1.7637    0.0000 C   0  0  0  0  0  0  0  0  0  0  0  0
   -1.2292    0.5940    0.0000 C   0  0  0  0  0  0  0  0  0  0  0  0
    0.2108    1.0141    0.0000 O   0  0  0  0  0  0  0  0  0  0  0  0
    1.2945   -0.0230    0.0000 C   0  0  0  0  0  0  0  0  0  0  0  0
    0.9383   -1.4801    0.0000 O   0  0  0  0  0  0  0  0  0  0  0  0
    2.7345    0.3971    0.0000 C   0  0  0  0  0  0  0  0  0  0  0  0
    3.8183   -0.6400    0.0000 S   0  0  0  0  0  0  0  0  0  0  0  0
    5.2583   -0.2199    0.0000 C   0  0  0  0  0  0  0  0  0  0  0  0
    6.3420   -1.2570    0.0000 C   0  0  0  0  0  0  0  0  0  0  0  0
    7.7820   -0.8369    0.0000 C   0  0  0  0  0  0  0  0  0  0  0  0
    9.0217    0.0075    0.0000 C   0  0  0  0  0  0  0  0  0  0  0  0
    8.6017    1.4475    0.0000 C   0  0  0  0  0  0  0  0  0  0  0  0
    7.1024    1.4930    0.0000 C   0  0  0  0  0  0  0  0  0  0  0  0
    5.6145    1.2372    0.0000 C   0  0  0  0  0  0  0  0  0  0  0  0
    6.5958    0.0812    0.0000 N   0  0  0  0  0  0  0  0  0  0  0  0
    5.7992    0.0497    0.0000 C   0  0  0  0  0  0  0  0  0  0  0  0
   -1.3922   -0.8971    0.0000 C   0  0  0  0  0  0  0  0  0  0  0  0
   -0.0770   -1.6183    0.0000 C   0  0  0  0  0  0  0  0  0  0  0  0
   -2.5618   -1.8362    0.0000 C   0  0  0  0  0  0  0  0  0  0  0  0
   -2.2561   -3.3047    0.0000 C   0  0  0  0  0  0  0  0  0  0  0  0
   -0.8883   -3.9205    0.0000 O   0  0  0  0  0  0  0  0  0  0  0  0
   -3.5582   -4.0493    0.0000 C   0  0  0  0  0  0  0  0  0  0  0  0
   -4.6688   -3.0410    0.0000 C   0  0  0  0  0  0  0  0  0  0  0  0
   -4.0530   -1.6732    0.0000 C   0  0  0  0  0  0  0  0  0  0  0  0
   -4.3064   -0.1846    0.0000 C   0  0  0  0  0  0  0  0  0  0  0  0
   -3.2693    0.8991    0.0000 C   0  0  0  0  0  0  0  0  0  0  0  0
   -1.8123    0.5429    0.0000 C   0  0  0  0  0  0  0  0  0  0  0  0
   -0.7752    1.6267    0.0000 C   0  0  0  0  0  0  0  0  0  0  0  0
   -4.9921   -0.5036    0.0000 C   0  0  0  0  0  0  0  0  0  0  0  0
   -6.4321   -0.9236    0.0000 C   0  0  0  0  0  0  0  0  0  0  0  0
   -4.8291    0.9875    0.0000 C   0  0  0  0  0  0  0  0  0  0  0  0
   -6.1443    1.7087    0.0000 O   0  0  0  0  0  0  0  0  0  0  0  0
  1  2  2  0
  2  3  1  0
  3  4  1  1
  3  5  1  0
  5  6  1  0
  6  7  1  1
  7  8  1  0
  8  9  2  0
  8 10  1  0
 10 11  1  0
 11 12  1  0
 12 13  1  0
 14 13  1  6
 14 15  1  0
 15 16  1  0
 17 16  1  6
 17 18  1  0
 17 19  1  0
 19 20  1  0
  6 21  1  0
 21 22  1  6
 21 23  1  0
 23 24  1  6
 24 25  2  0
 24 26  1  0
 26 27  1  0
 28 27  1  6
 28 29  1  0
 29 30  1  0
 30 31  1  0
 31 32  1  1
 28 33  1  0
 33 34  1  1
 33 35  1  0
 35 36  1  6
 35  3  1  0
 18 12  1  0
 31 21  1  0
 19 14  1  0
 28 23  1  0
M  END
>  <zinc_id>  (1) 
ZINC000003931840

>  <smiles>  (1) 
C=C[C@]1(C)C[C@@H](OC(=O)CSC2C[C@@H]3CC[C@H](C2)N3C)[C@]2(C)[C@H](C)CC[C@]3(CCC(=O)[C@H]32)[C@@H](C)[C@@H]1O

$$$$
