
     RDKit          3D

 24 24  0  0  0  0  0  0  0  0999 V2000
   -6.9473   -0.4371   -3.4417 C   0  0  0  0  0  0  0  0  0  0  0  0
   -6.5707   -1.0602   -2.2471 O   0  0  0  0  0  0  0  0  0  0  0  0
   -5.3326   -0.9832   -1.6675 C   0  0  0  0  0  0  0  0  0  0  0  0
   -4.3120   -0.2513   -2.2424 C   0  0  0  0  0  0  0  0  0  0  0  0
   -3.0700   -0.1817   -1.6490 C   0  0  0  0  0  0  0  0  0  0  0  0
   -2.0201    0.6229   -2.3219 C   0  0  0  0  0  0  0  0  0  0  0  0
   -2.8874   -0.8649   -0.4695 C   0  0  0  0  0  0  0  0  0  0  0  0
   -1.5660   -0.7819    0.1475 C   0  0  0  0  0  0  0  0  0  0  0  0
   -0.5706   -0.1089   -0.3490 C   0  0  0  0  0  0  0  0  0  0  0  0
    0.7333   -0.0724    0.3315 C   0  0  0  0  0  0  0  0  0  0  0  0
    0.9164   -0.8149    1.6045 C   0  0  0  0  0  0  0  0  0  0  0  0
    1.7559    0.6050   -0.1565 C   0  0  0  0  0  0  0  0  0  0  0  0
    3.0533    0.6495    0.5077 C   0  0  0  0  0  0  0  0  0  0  0  0
    4.0824    1.3078    0.0533 C   0  0  0  0  0  0  0  0  0  0  0  0
    5.3796    1.3518    0.7181 C   0  0  0  0  0  0  0  0  0  0  0  0
    5.5839    0.6160    1.9928 C   0  0  0  0  0  0  0  0  0  0  0  0
    6.3729    2.0275    0.2161 C   0  0  0  0  0  0  0  0  0  0  0  0
    7.7041    2.1159    0.8302 C   0  0  0  0  0  0  0  0  0  0  0  0
    8.5496    2.8217    0.1972 O   0  0  0  0  0  0  0  0  0  0  0  0
    8.0284    1.4811    2.0136 O   0  0  0  0  0  0  0  0  0  0  0  0
   -3.8804   -1.6005    0.1269 C   0  0  0  0  0  0  0  0  0  0  0  0
   -3.6458   -2.3347    1.4160 C   0  0  0  0  0  0  0  0  0  0  0  0
   -5.1135   -1.6575   -0.4815 C   0  0  0  0  0  0  0  0  0  0  0  0
   -6.2435   -2.4501    0.1272 C   0  0  0  0  0  0  0  0  0  0  0  0
  1  2  1  0
  2  3  1  0
  3  4  2  0
  4  5  1  0
  5  6  1  0
  5  7  2  0
  7  8  1  0
  8  9  2  0
  9 10  1  0
 10 11  1  0
 10 12  2  0
 12 13  1  0
 13 14  2  0
 14 15  1  0
 15 16  1  0
 15 17  2  0
 17 18  1  0
 18 19  2  0
 18 20  1  0
  7 21  1  0
 21 22  1  0
 21 23  2  0
 23 24  1  0
 23  3  1  0
M  END
>  <zinc_id>  (1) 
ZINC000003798734

>  <smiles>  (1) 
COc1cc(C)c(/C=C/C(C)=C/C=C/C(C)=C/C(=O)O)c(C)c1C

$$$$
