
     RDKit          3D

 22 23  0  0  0  0  0  0  0  0999 V2000
   -1.2536   -3.7909   -0.4021 C   0  0  0  0  0  0  0  0  0  0  0  0
   -0.3236   -2.7342   -0.1732 N   0  0  0  0  0  0  0  0  0  0  0  0
    0.4717   -2.3691   -1.3023 C   0  0  0  0  0  0  0  0  0  0  0  0
    1.3784   -1.2588   -0.8826 C   0  0  0  0  0  0  0  0  0  0  0  0
    2.6941   -1.3546   -0.9318 C   0  0  0  0  0  0  0  0  0  0  0  0
    3.5508   -0.2564   -0.5162 C   0  0  0  0  0  0  0  0  0  0  0  0
    4.2506    0.6684   -0.1828 C   0  0  0  0  0  0  0  0  0  0  0  0
    5.0802    1.8044    0.2258 C   0  0  0  0  0  0  0  0  0  0  0  0
    5.1071    2.8889   -0.8445 C   0  0  0  0  0  0  0  0  0  0  0  0
    6.4750    1.2916    0.4578 C   0  0  0  0  0  0  0  0  0  0  0  0
    4.5920    2.4219    1.5172 C   0  0  0  0  0  0  0  0  0  0  0  0
   -0.8279   -1.6303    0.5766 C   0  0  0  0  0  0  0  0  0  0  0  0
   -1.9919   -0.9738   -0.0861 C   0  0  0  0  0  0  0  0  0  0  0  0
   -2.5079   -1.4023   -1.2904 C   0  0  0  0  0  0  0  0  0  0  0  0
   -3.5865   -0.7647   -1.8675 C   0  0  0  0  0  0  0  0  0  0  0  0
   -4.1816    0.3214   -1.2569 C   0  0  0  0  0  0  0  0  0  0  0  0
   -3.6731    0.7581   -0.0518 C   0  0  0  0  0  0  0  0  0  0  0  0
   -4.2124    1.8351    0.6191 C   0  0  0  0  0  0  0  0  0  0  0  0
   -3.7216    2.2800    1.8118 C   0  0  0  0  0  0  0  0  0  0  0  0
   -2.6445    1.6162    2.3538 C   0  0  0  0  0  0  0  0  0  0  0  0
   -2.0826    0.5375    1.7097 C   0  0  0  0  0  0  0  0  0  0  0  0
   -2.5928    0.1117    0.5165 C   0  0  0  0  0  0  0  0  0  0  0  0
  1  2  1  0
  2  3  1  0
  3  4  1  0
  4  5  2  0
  5  6  1  0
  6  7  3  0
  7  8  1  0
  8  9  1  0
  8 10  1  0
  8 11  1  0
  2 12  1  0
 12 13  1  0
 13 14  2  0
 14 15  1  0
 15 16  2  0
 16 17  1  0
 17 18  2  0
 18 19  1  0
 19 20  2  0
 20 21  1  0
 21 22  2  0
 22 13  1  0
 22 17  1  0
M  END
>  <zinc_id>  (1) 
ZINC000001530981

>  <smiles>  (1) 
CN(C/C=C/C#CC(C)(C)C)Cc1cccc2ccccc12

$$$$
