
     RDKit          3D

 24 23  0  0  0  0  0  0  0  0999 V2000
    6.8511   -1.9685   -1.8117 C   0  0  0  0  0  0  0  0  0  0  0  0
    6.1044   -0.6256   -1.8520 C   0  0  0  0  0  0  0  0  0  0  0  0
    6.7551    0.3732   -0.9225 C   0  0  0  0  0  0  0  0  0  0  0  0
    5.9878    0.8594    0.0835 C   0  0  0  0  0  0  0  0  0  0  0  0
    4.5670    0.3594    0.1717 C   0  0  0  0  0  0  0  0  0  0  0  0
    4.4199   -0.3127    1.4768 C   0  0  0  0  0  0  0  0  0  0  0  0
    3.5524    0.1127    2.3545 C   0  0  0  0  0  0  0  0  0  0  0  0
    2.6888    1.2604    2.0989 C   0  0  0  0  0  0  0  0  0  0  0  0
    2.8118    1.8913    0.7840 C   0  0  0  0  0  0  0  0  0  0  0  0
    1.7826    2.0330   -0.0018 C   0  0  0  0  0  0  0  0  0  0  0  0
    0.4191    1.6099    0.2939 C   0  0  0  0  0  0  0  0  0  0  0  0
    0.1953    1.0080    1.6182 C   0  0  0  0  0  0  0  0  0  0  0  0
   -0.2706   -0.2091    1.8435 C   0  0  0  0  0  0  0  0  0  0  0  0
   -0.6057   -1.0715    0.6920 C   0  0  0  0  0  0  0  0  0  0  0  0
   -2.0412   -1.4368    0.7291 C   0  0  0  0  0  0  0  0  0  0  0  0
   -2.8280   -1.1580   -0.2789 C   0  0  0  0  0  0  0  0  0  0  0  0
   -2.3409   -0.4801   -1.4830 C   0  0  0  0  0  0  0  0  0  0  0  0
   -3.0843    0.7804   -1.7641 C   0  0  0  0  0  0  0  0  0  0  0  0
   -4.5187    0.6132   -1.9994 C   0  0  0  0  0  0  0  0  0  0  0  0
   -5.3721    0.0991   -0.9309 C   0  0  0  0  0  0  0  0  0  0  0  0
   -5.2489    0.5636    0.2338 O   0  0  0  0  0  0  0  0  0  0  0  0
   -6.2978   -0.8859   -1.2116 O   0  0  0  0  0  0  0  0  0  0  0  0
   -7.1496   -1.4042   -0.2302 C   0  0  0  0  0  0  0  0  0  0  0  0
   -6.3775   -2.0113    0.9015 C   0  0  0  0  0  0  0  0  0  0  0  0
  1  2  1  0
  2  3  1  0
  3  4  2  0
  4  5  1  0
  5  6  1  0
  6  7  2  0
  7  8  1  0
  8  9  1  0
  9 10  2  0
 10 11  1  0
 11 12  1  0
 12 13  2  0
 13 14  1  0
 14 15  1  0
 15 16  2  0
 16 17  1  0
 17 18  1  0
 18 19  1  0
 19 20  1  0
 20 21  2  0
 20 22  1  0
 22 23  1  0
 23 24  1  0
M  END
>  <zinc_id>  (1) 
ZINC000003785276

>  <smiles>  (1) 
CC/C=C\C/C=C\C/C=C\C/C=C\C/C=C\CCCC(=O)OCC

$$$$
