
     RDKit          3D

 35 39  0  0  0  0  0  0  0  0999 V2000
   -0.6652    4.7447   -0.1019 C   0  0  0  0  0  0  0  0  0  0  0  0
   -1.2286    3.4973   -0.6391 C   0  0  0  0  0  0  0  0  0  0  0  0
   -1.6928    2.4654   -1.0641 C   0  0  0  0  0  0  0  0  0  0  0  0
   -2.2640    1.1940   -1.5664 C   0  0  0  0  0  0  0  0  0  0  0  0
   -2.1957    0.1425   -0.6053 N   0  0  0  0  0  0  0  0  0  0  0  0
   -3.1156   -0.1818    0.3210 C   0  0  0  0  0  0  0  0  0  0  0  0
   -4.3605    0.5047    0.4920 N   0  0  0  0  0  0  0  0  0  0  0  0
   -5.2218    0.0039    1.5544 C   0  0  0  0  0  0  0  0  0  0  0  0
   -6.4037   -0.5954    0.8188 C   0  0  0  0  0  0  0  0  0  0  0  0
   -6.4600   -0.2065   -0.5880 C   0  0  0  0  0  0  0  0  0  0  0  0
   -6.3489    1.4309   -0.7466 C   0  0  1  0  0  0  0  0  0  0  0  0
   -6.9426    1.8210    0.6718 N   0  0  0  0  0  0  0  0  0  0  0  0
   -4.7815    1.5832   -0.2704 C   0  0  0  0  0  0  0  0  0  0  0  0
   -2.6221   -1.2330    1.0000 N   0  0  0  0  0  0  0  0  0  0  0  0
   -1.4101   -1.5827    0.5253 C   0  0  0  0  0  0  0  0  0  0  0  0
   -1.1415   -0.7005   -0.5009 C   0  0  0  0  0  0  0  0  0  0  0  0
    0.0590   -0.8420   -1.1678 C   0  0  0  0  0  0  0  0  0  0  0  0
    0.2937   -0.0390   -2.0954 O   0  0  0  0  0  0  0  0  0  0  0  0
    0.8962   -1.8239   -0.7852 N   0  0  0  0  0  0  0  0  0  0  0  0
    2.1580   -1.9720   -1.4866 C   0  0  0  0  0  0  0  0  0  0  0  0
    3.1722   -1.1386   -0.7917 C   0  0  0  0  0  0  0  0  0  0  0  0
    3.8691   -1.7289    0.1968 N   0  0  0  0  0  0  0  0  0  0  0  0
    4.7892   -1.0387    0.8562 C   0  0  0  0  0  0  0  0  0  0  0  0
    5.5809   -1.6674    1.9607 C   0  0  0  0  0  0  0  0  0  0  0  0
    5.0596    0.2779    0.5608 C   0  0  0  0  0  0  0  0  0  0  0  0
    6.0302    0.9652    1.2744 C   0  0  0  0  0  0  0  0  0  0  0  0
    6.2759    2.2882    0.9504 C   0  0  0  0  0  0  0  0  0  0  0  0
    5.5779    2.9045   -0.0505 C   0  0  0  0  0  0  0  0  0  0  0  0
    4.6218    2.1831   -0.7339 C   0  0  0  0  0  0  0  0  0  0  0  0
    4.3436    0.8809   -0.4530 C   0  0  0  0  0  0  0  0  0  0  0  0
    3.4142    0.1470   -1.1031 N   0  0  0  0  0  0  0  0  0  0  0  0
    0.6273   -2.6815    0.2177 C   0  0  0  0  0  0  0  0  0  0  0  0
    1.4666   -3.5689    0.5083 O   0  0  0  0  0  0  0  0  0  0  0  0
   -0.5424   -2.5511    0.8746 N   0  0  0  0  0  0  0  0  0  0  0  0
   -0.8386   -3.4826    1.9667 C   0  0  0  0  0  0  0  0  0  0  0  0
  1  2  1  0
  2  3  3  0
  3  4  1  0
  4  5  1  0
  5  6  1  0
  6  7  1  0
  7  8  1  0
  8  9  1  0
  9 10  1  0
 10 11  1  0
 11 12  1  1
 11 13  1  0
  6 14  2  0
 14 15  1  0
 15 16  2  0
 16 17  1  0
 17 18  2  0
 17 19  1  0
 19 20  1  0
 20 21  1  0
 21 22  2  0
 22 23  1  0
 23 24  1  0
 23 25  2  0
 25 26  1  0
 26 27  2  0
 27 28  1  0
 28 29  2  0
 29 30  1  0
 30 31  2  0
 19 32  1  0
 32 33  2  0
 32 34  1  0
 34 35  1  0
 16  5  1  0
 31 21  1  0
 13  7  1  0
 34 15  1  0
 30 25  1  0
M  END
>  <zinc_id>  (1) 
ZINC000003820029

>  <smiles>  (1) 
CC#CCn1c(N2CCC[C@@H](N)C2)nc2c1c(=O)n(Cc1nc(C)c3ccccc3n1)c(=O)n2C

$$$$
