
     RDKit          3D

 21 24  0  0  0  0  0  0  0  0999 V2000
    0.9026    4.3000    0.6446 Cl  0  0  0  0  0  0  0  0  0  0  0  0
    0.0148    2.8270    0.3370 C   0  0  0  0  0  0  0  0  0  0  0  0
   -1.3456    2.9189    0.1785 C   0  0  0  0  0  0  0  0  0  0  0  0
   -2.1682    1.8228   -0.0708 C   0  0  0  0  0  0  0  0  0  0  0  0
   -1.5298    0.5913   -0.1548 C   0  0  0  0  0  0  0  0  0  0  0  0
   -0.1630    0.4986    0.0045 C   0  0  0  0  0  0  0  0  0  0  0  0
    0.6306    1.5901    0.2495 C   0  0  0  0  0  0  0  0  0  0  0  0
    0.6027   -0.7494   -0.0676 C   0  0  0  0  0  0  0  0  0  0  0  0
    2.0262   -0.6171   -0.3987 C   0  0  0  0  0  0  0  0  0  0  0  0
    2.5958    0.6110   -0.6304 C   0  0  0  0  0  0  0  0  0  0  0  0
    3.9523    0.6991   -0.9425 C   0  0  0  0  0  0  0  0  0  0  0  0
    4.7571   -0.4172   -1.0289 C   0  0  0  0  0  0  0  0  0  0  0  0
    4.1713   -1.6431   -0.7937 C   0  0  0  0  0  0  0  0  0  0  0  0
    2.8205   -1.7377   -0.4824 C   0  0  0  0  0  0  0  0  0  0  0  0
    0.1230   -1.9273    0.1395 N   0  0  0  0  0  0  0  0  0  0  0  0
   -1.1675   -2.4318    0.4770 C   0  0  0  0  0  0  0  0  0  0  0  0
   -2.3146   -1.7491   -0.1452 C   0  0  0  0  0  0  0  0  0  0  0  0
   -3.4552   -2.3916   -0.5572 N   0  0  0  0  0  0  0  0  0  0  0  0
   -4.2742   -1.4854   -1.0601 N   0  0  0  0  0  0  0  0  0  0  0  0
   -3.6960   -0.2592   -0.9877 C   0  0  0  0  0  0  0  0  0  0  0  0
   -2.4827   -0.4500   -0.4173 N   0  0  0  0  0  0  0  0  0  0  0  0
  1  2  1  0
  2  3  2  0
  3  4  1  0
  4  5  2  0
  5  6  1  0
  6  7  2  0
  6  8  1  0
  8  9  1  0
  9 10  2  0
 10 11  1  0
 11 12  2  0
 12 13  1  0
 13 14  2  0
  8 15  2  0
 15 16  1  0
 16 17  1  0
 17 18  2  0
 18 19  1  0
 19 20  2  0
 20 21  1  0
  7  2  1  0
 14  9  1  0
 21 17  1  0
 21  5  1  0
M  END
>  <zinc_id>  (1) 
ZINC000000001370

>  <smiles>  (1) 
Clc1ccc2c(c1)C(c1ccccc1)=NCc1nncn1-2

$$$$
