
     RDKit          3D

 10  9  0  0  0  0  0  0  0  0999 V2000
   -2.2507   -0.1618   -1.2200 O   0  0  0  0  0  0  0  0  0  0  0  0
   -1.4505    0.3087   -0.4600 C   0  0  0  0  0  0  0  0  0  0  0  0
   -1.1593    1.6684   -0.5644 O   0  0  0  0  0  0  0  0  0  0  0  0
   -0.6989   -0.4383    0.6350 C   0  0  1  0  0  0  0  0  0  0  0  0
   -1.4277   -2.1568    0.4067 S   0  0  0  0  0  0  0  0  0  0  0  0
    0.6744   -0.6984   -0.1829 C   0  0  2  0  0  0  0  0  0  0  0  0
    1.5664   -1.6300    1.2264 S   0  0  0  0  0  0  0  0  0  0  0  0
    1.3783    0.6456    0.0164 C   0  0  0  0  0  0  0  0  0  0  0  0
    1.6515    1.2511   -1.0459 O   0  0  0  0  0  0  0  0  0  0  0  0
    1.7164    1.2115    1.1887 O   0  0  0  0  0  0  0  0  0  0  0  0
  1  2  2  0
  2  3  1  0
  2  4  1  0
  4  5  1  6
  4  6  1  0
  6  7  1  1
  6  8  1  0
  8  9  2  0
  8 10  1  0
M  END
>  <zinc_id>  (1) 
ZINC000003831474

>  <smiles>  (1) 
O=C(O)[C@@H](S)[C@H](S)C(=O)O

$$$$
