
     RDKit          3D

 31 36  0  0  0  0  0  0  0  0999 V2000
   -3.7545   -4.1581    0.0963 C   0  0  0  0  0  0  0  0  0  0  0  0
   -3.6815   -2.7309    0.0889 O   0  0  0  0  0  0  0  0  0  0  0  0
   -2.4091   -2.1801    0.1291 C   0  0  0  0  0  0  0  0  0  0  0  0
   -1.2563   -2.9163    0.1744 C   0  0  0  0  0  0  0  0  0  0  0  0
   -0.0286   -2.2875    0.2126 C   0  0  0  0  0  0  0  0  0  0  0  0
    0.0858   -0.9096    0.2067 C   0  0  0  0  0  0  0  0  0  0  0  0
    1.4020   -0.2569    0.2478 C   0  0  0  0  0  0  0  0  0  0  0  0
    1.6232    0.9664    0.8421 C   0  0  0  0  0  0  0  0  0  0  0  0
    2.8816    1.5450    0.8574 C   0  0  0  0  0  0  0  0  0  0  0  0
    3.9593    0.9101    0.2742 C   0  0  0  0  0  0  0  0  0  0  0  0
    5.2319    1.4913    0.2872 C   0  0  0  0  0  0  0  0  0  0  0  0
    6.2864    0.8294   -0.3051 C   0  0  0  0  0  0  0  0  0  0  0  0
    7.6351    1.4215   -0.3038 C   0  0  0  0  0  0  0  0  0  0  0  0
    7.8307    2.5372    0.2393 O   0  0  0  0  0  0  0  0  0  0  0  0
    8.6969    0.7762   -0.8889 O   0  0  0  0  0  0  0  0  0  0  0  0
    6.0502   -0.3926   -0.8951 C   0  0  0  0  0  0  0  0  0  0  0  0
    4.8009   -0.9786   -0.9161 C   0  0  0  0  0  0  0  0  0  0  0  0
    3.7447   -0.3130   -0.3215 C   0  0  0  0  0  0  0  0  0  0  0  0
    2.4795   -0.8869   -0.3328 C   0  0  0  0  0  0  0  0  0  0  0  0
   -1.0828   -0.1819    0.1609 C   0  0  0  0  0  0  0  0  0  0  0  0
   -2.3284   -0.7938    0.1220 C   0  0  0  0  0  0  0  0  0  0  0  0
   -3.5704    0.0108    0.0727 C   0  0  2  0  0  0  0  0  0  0  0  0
   -4.4429   -0.2970    1.2861 C   0  0  0  0  0  0  0  0  0  0  0  0
   -5.6804    0.5672    1.1844 C   0  0  1  0  0  0  0  0  0  0  0  0
   -5.2888    2.0326    1.1898 C   0  0  0  0  0  0  0  0  0  0  0  0
   -4.4197    2.3322   -0.0071 C   0  0  2  0  0  0  0  0  0  0  0  0
   -5.1715    2.0141   -1.2777 C   0  0  0  0  0  0  0  0  0  0  0  0
   -5.5640    0.5568   -1.2588 C   0  0  2  0  0  0  0  0  0  0  0  0
   -6.4722    0.3073   -0.0666 C   0  0  0  0  0  0  0  0  0  0  0  0
   -4.3713   -0.3411   -1.1587 C   0  0  0  0  0  0  0  0  0  0  0  0
   -3.1858    1.4731    0.0601 C   0  0  0  0  0  0  0  0  0  0  0  0
  1  2  1  0
  2  3  1  0
  3  4  2  0
  4  5  1  0
  5  6  2  0
  6  7  1  0
  7  8  2  0
  8  9  1  0
  9 10  2  0
 10 11  1  0
 11 12  2  0
 12 13  1  0
 13 14  2  0
 13 15  1  0
 12 16  1  0
 16 17  2  0
 17 18  1  0
 18 19  2  0
  6 20  1  0
 20 21  2  0
 22 21  1  1
 22 23  1  0
 24 23  1  6
 24 25  1  0
 26 25  1  1
 26 27  1  0
 28 27  1  1
 28 29  1  0
 28 30  1  0
 26 31  1  0
 21  3  1  0
 30 22  1  0
 19  7  1  0
 31 22  1  0
 18 10  1  0
 29 24  1  0
M  END
>  <zinc_id>  (1) 
ZINC000003784182

>  <smiles>  (1) 
COc1ccc(-c2ccc3cc(C(=O)O)ccc3c2)cc1C12CC3CC(CC(C3)C1)C2

$$$$
