
     RDKit          3D

 31 33  0  0  0  0  0  0  0  0999 V2000
   -8.4853    1.0410    1.3988 N   0  0  0  0  0  0  0  0  0  0  0  0
   -7.3696    0.5663    0.9763 C   0  0  0  0  0  0  0  0  0  0  0  0
   -6.6454   -0.3347    1.6701 N   0  0  0  0  0  0  0  0  0  0  0  0
   -5.4605   -0.8463    1.2610 C   0  0  0  0  0  0  0  0  0  0  0  0
   -4.5618   -1.7165    1.7096 N   0  0  0  0  0  0  0  0  0  0  0  0
   -3.5721   -1.8395    0.8551 C   0  0  0  0  0  0  0  0  0  0  0  0
   -3.7616   -1.0436   -0.2105 C   0  0  0  0  0  0  0  0  0  0  0  0
   -3.0291   -0.7236   -1.4317 C   0  0  0  0  0  0  0  0  0  0  0  0
   -2.3346    0.5563   -1.3244 C   0  0  0  0  0  0  0  0  0  0  0  0
   -1.1649    0.5692   -0.4341 C   0  0  0  0  0  0  0  0  0  0  0  0
   -0.9536    0.8071    0.8527 C   0  0  0  0  0  0  0  0  0  0  0  0
    0.3920    0.8578    1.3780 C   0  0  0  0  0  0  0  0  0  0  0  0
    1.3873    0.6736    0.5692 C   0  0  0  0  0  0  0  0  0  0  0  0
    2.8809    0.8099    0.7320 C   0  0  0  0  0  0  0  0  0  0  0  0
    3.3523    1.8005    1.2926 O   0  0  0  0  0  0  0  0  0  0  0  0
    3.7234   -0.1749    0.2193 N   0  0  0  0  0  0  0  0  0  0  0  0
    5.1128   -0.3077    0.1103 C   0  0  1  0  0  0  0  0  0  0  0  0
    5.8326   -1.2479    0.9919 C   0  0  0  0  0  0  0  0  0  0  0  0
    7.3002   -1.0968    0.4809 C   0  0  0  0  0  0  0  0  0  0  0  0
    7.7250    0.3205    0.5468 C   0  0  0  0  0  0  0  0  0  0  0  0
    8.6748    0.7784   -0.1765 O   0  0  0  0  0  0  0  0  0  0  0  0
    7.1035    1.2134    1.4091 O   0  0  0  0  0  0  0  0  0  0  0  0
    5.1689   -1.0037   -1.3102 C   0  0  0  0  0  0  0  0  0  0  0  0
    5.4288   -0.1575   -2.2236 O   0  0  0  0  0  0  0  0  0  0  0  0
    4.9576   -2.3125   -1.4766 O   0  0  0  0  0  0  0  0  0  0  0  0
    1.1765    0.4058   -0.8060 C   0  0  0  0  0  0  0  0  0  0  0  0
   -0.0150    0.3534   -1.2816 C   0  0  0  0  0  0  0  0  0  0  0  0
   -4.9945   -0.3929    0.0452 C   0  0  0  0  0  0  0  0  0  0  0  0
   -5.7024    0.5178   -0.6798 C   0  0  0  0  0  0  0  0  0  0  0  0
   -5.2848    0.9295   -1.8007 O   0  0  0  0  0  0  0  0  0  0  0  0
   -6.8814    0.9976   -0.2141 N   0  0  0  0  0  0  0  0  0  0  0  0
  1  2  1  0
  2  3  2  0
  3  4  1  0
  4  5  1  0
  5  6  1  0
  6  7  2  0
  7  8  1  0
  8  9  1  0
  9 10  1  0
 10 11  2  0
 11 12  1  0
 12 13  2  0
 13 14  1  0
 14 15  2  0
 14 16  1  0
 16 17  1  0
 17 18  1  1
 18 19  1  0
 19 20  1  0
 20 21  2  0
 20 22  1  0
 17 23  1  0
 23 24  2  0
 23 25  1  0
 13 26  1  0
 26 27  2  0
  7 28  1  0
 28 29  1  0
 29 30  2  0
 29 31  1  0
 31  2  1  0
 28  4  2  0
 27 10  1  0
M  END
>  <zinc_id>  (1) 
ZINC000001540998

>  <smiles>  (1) 
Nc1nc2[nH]cc(CCc3ccc(C(=O)N[C@@H](CCC(=O)O)C(=O)O)cc3)c2c(=O)[nH]1

$$$$
