
     RDKit          3D

 51 53  0  0  0  0  0  0  0  0999 V2000
    8.7223    1.3370   -2.2304 C   0  0  0  0  0  0  0  0  0  0  0  0
    7.9770    1.8494   -1.7417 O   0  0  0  0  0  0  0  0  0  0  0  0
    7.0172    1.5965   -0.7937 C   0  0  0  0  0  0  0  0  0  0  0  0
    6.9523    0.4534   -0.3349 O   0  0  0  0  0  0  0  0  0  0  0  0
    6.0653    2.4230   -0.2257 N   0  0  0  0  0  0  0  0  0  0  0  0
    5.0891    1.8888    0.8357 C   0  0  2  0  0  0  0  0  0  0  0  0
    3.8679    1.4228   -0.0289 C   0  0  0  0  0  0  0  0  0  0  0  0
    3.8544    1.5456   -1.2524 O   0  0  0  0  0  0  0  0  0  0  0  0
    2.7386    0.8440    0.5716 N   0  0  0  0  0  0  0  0  0  0  0  0
    1.6382    0.4108   -0.4285 C   0  0  1  0  0  0  0  0  0  0  0  0
    2.3890   -0.7746   -1.1837 C   0  0  0  0  0  0  0  0  0  0  0  0
    2.8093   -1.8763   -0.4132 C   0  0  0  0  0  0  0  0  0  0  0  0
    4.0469   -1.7909    0.1711 C   0  0  0  0  0  0  0  0  0  0  0  0
    4.6347   -2.7451    0.9269 C   0  0  0  0  0  0  0  0  0  0  0  0
    3.9533   -3.9293    1.1507 C   0  0  0  0  0  0  0  0  0  0  0  0
    2.7027   -4.0535    0.5764 C   0  0  0  0  0  0  0  0  0  0  0  0
    2.1446   -3.0491   -0.1864 C   0  0  0  0  0  0  0  0  0  0  0  0
    0.8415   -0.6304    0.6544 C   0  0  1  0  0  0  0  0  0  0  0  0
    0.5602    0.5048    1.5932 O   0  0  0  0  0  0  0  0  0  0  0  0
   -0.5504   -0.5095   -0.1662 C   0  0  0  0  0  0  0  0  0  0  0  0
   -1.6460   -0.6585    0.6640 N   0  0  0  0  0  0  0  0  0  0  0  0
   -2.0145    0.3348    1.5799 C   0  0  0  0  0  0  0  0  0  0  0  0
   -2.5862    1.5664    1.0968 C   0  0  0  0  0  0  0  0  0  0  0  0
   -3.6850    2.0018    1.7915 C   0  0  0  0  0  0  0  0  0  0  0  0
   -4.3443    3.1139    1.4210 C   0  0  0  0  0  0  0  0  0  0  0  0
   -3.9244    3.8391    0.3296 C   0  0  0  0  0  0  0  0  0  0  0  0
   -4.7317    5.0233   -0.0084 C   0  0  0  0  0  0  0  0  0  0  0  0
   -5.8057    5.3890    0.7360 C   0  0  0  0  0  0  0  0  0  0  0  0
   -6.5962    6.4867    0.4446 C   0  0  0  0  0  0  0  0  0  0  0  0
   -6.2411    7.2093   -0.6574 C   0  0  0  0  0  0  0  0  0  0  0  0
   -5.1475    6.8163   -1.3946 C   0  0  0  0  0  0  0  0  0  0  0  0
   -4.3906    5.7354   -1.0849 N   0  0  0  0  0  0  0  0  0  0  0  0
   -2.8305    3.4475   -0.3952 C   0  0  0  0  0  0  0  0  0  0  0  0
   -2.1654    2.2779    0.0223 C   0  0  0  0  0  0  0  0  0  0  0  0
   -2.4838   -1.6963    0.4862 N   0  0  0  0  0  0  0  0  0  0  0  0
   -2.3847   -2.8381   -0.2187 C   0  0  0  0  0  0  0  0  0  0  0  0
   -1.3370   -3.0580   -0.8717 O   0  0  0  0  0  0  0  0  0  0  0  0
   -3.5336   -3.9578   -0.2751 C   0  0  1  0  0  0  0  0  0  0  0  0
   -2.7039   -5.0290   -0.9715 N   0  0  0  0  0  0  0  0  0  0  0  0
   -3.2471   -6.1880   -1.4367 C   0  0  0  0  0  0  0  0  0  0  0  0
   -4.4671   -6.3291   -1.2838 O   0  0  0  0  0  0  0  0  0  0  0  0
   -2.6135   -7.2547   -2.0666 O   0  0  0  0  0  0  0  0  0  0  0  0
   -3.3091   -8.4076   -2.4896 C   0  0  0  0  0  0  0  0  0  0  0  0
   -3.3297   -4.4013    1.2926 C   0  0  0  0  0  0  0  0  0  0  0  0
   -4.2874   -5.4875    1.6175 C   0  0  0  0  0  0  0  0  0  0  0  0
   -1.9409   -4.5615    1.6044 C   0  0  0  0  0  0  0  0  0  0  0  0
   -4.0043   -3.2053    2.0036 C   0  0  0  0  0  0  0  0  0  0  0  0
    4.6252    3.3927    1.2412 C   0  0  0  0  0  0  0  0  0  0  0  0
    4.0573    4.0582    0.0457 C   0  0  0  0  0  0  0  0  0  0  0  0
    3.7046    3.3006    2.4072 C   0  0  0  0  0  0  0  0  0  0  0  0
    5.9100    4.1625    1.5675 C   0  0  0  0  0  0  0  0  0  0  0  0
  1  2  1  0
  2  3  1  0
  3  4  2  0
  3  5  1  0
  6  5  1  6
  6  7  1  0
  7  8  2  0
  7  9  1  0
  9 10  1  0
 10 11  1  6
 11 12  1  0
 12 13  2  0
 13 14  1  0
 14 15  2  0
 15 16  1  0
 16 17  2  0
 10 18  1  0
 18 19  1  1
 18 20  1  0
 20 21  1  0
 21 22  1  0
 22 23  1  0
 23 24  2  0
 24 25  1  0
 25 26  2  0
 26 27  1  0
 27 28  2  0
 28 29  1  0
 29 30  2  0
 30 31  1  0
 31 32  2  0
 26 33  1  0
 33 34  2  0
 21 35  1  0
 35 36  1  0
 36 37  2  0
 36 38  1  0
 38 39  1  6
 39 40  1  0
 40 41  2  0
 40 42  1  0
 42 43  1  0
 38 44  1  0
 44 45  1  0
 44 46  1  0
 44 47  1  0
  6 48  1  0
 48 49  1  0
 48 50  1  0
 48 51  1  0
 17 12  1  0
 34 23  1  0
 32 27  1  0
M  END
>  <zinc_id>  (1) 
ZINC000003941496

>  <smiles>  (1) 
COC(=O)N[C@H](C(=O)N[C@@H](Cc1ccccc1)[C@@H](O)CN(Cc1ccc(-c2ccccn2)cc1)NC(=O)[C@@H](NC(=O)OC)C(C)(C)C)C(C)(C)C

$$$$
