
     RDKit          3D

  5  4  0  0  0  0  0  0  0  0999 V2000
   -1.6918   -0.7190   -0.0423 N   0  0  0  0  0  0  0  0  0  0  0  0
   -0.4798    0.0263   -0.0097 C   0  0  0  0  0  0  0  0  0  0  0  0
   -0.5450    1.2828    0.0016 O   0  0  0  0  0  0  0  0  0  0  0  0
    0.7786   -0.6495    0.0096 N   0  0  0  0  0  0  0  0  0  0  0  0
    1.9381    0.0594    0.0408 O   0  0  0  0  0  0  0  0  0  0  0  0
  1  2  1  0
  2  3  2  0
  2  4  1  0
  4  5  1  0
M  END
>  <zinc_id>  (1) 
ZINC000008034120

>  <smiles>  (1) 
NC(=O)NO

$$$$
