
     RDKit          2D

 23 24  0  0  0  0  0  0  0  0999 V2000
   -6.2987   -0.9521    0.0000 O   0  0  0  0  0  0  0  0  0  0  0  0
   -4.9230   -1.5502    0.0000 C   0  0  0  0  0  0  0  0  0  0  0  0
   -3.7173   -0.6579    0.0000 C   0  0  0  0  0  0  0  0  0  0  0  0
   -2.2867   -1.1089    0.0000 O   0  0  0  0  0  0  0  0  0  0  0  0
   -1.4157    0.1123    0.0000 C   0  0  0  0  0  0  0  0  0  0  0  0
   -0.2922   -0.8816    0.0000 C   0  0  0  0  0  0  0  0  0  0  0  0
   -0.5912   -2.3515    0.0000 O   0  0  0  0  0  0  0  0  0  0  0  0
   -0.3098    1.1257    0.0000 O   0  0  0  0  0  0  0  0  0  0  0  0
    1.1208    0.6747    0.0000 C   0  0  0  0  0  0  0  0  0  0  0  0
    1.4455   -0.7898    0.0000 O   0  0  0  0  0  0  0  0  0  0  0  0
    2.8761   -1.2408    0.0000 C   0  0  0  0  0  0  0  0  0  0  0  0
    3.2008   -2.7052    0.0000 C   0  0  0  0  0  0  0  0  0  0  0  0
    2.0949   -3.7186    0.0000 O   0  0  0  0  0  0  0  0  0  0  0  0
    3.9820   -0.2274    0.0000 C   0  0  0  0  0  0  0  0  0  0  0  0
    5.4126   -0.6784    0.0000 O   0  0  0  0  0  0  0  0  0  0  0  0
    3.6573    1.2371    0.0000 C   0  0  0  0  0  0  0  0  0  0  0  0
    4.7631    2.2505    0.0000 O   0  0  0  0  0  0  0  0  0  0  0  0
    2.2267    1.6881    0.0000 C   0  0  0  0  0  0  0  0  0  0  0  0
    1.9020    3.1525    0.0000 O   0  0  0  0  0  0  0  0  0  0  0  0
   -2.3080    1.3180    0.0000 C   0  0  0  0  0  0  0  0  0  0  0  0
   -1.8570    2.7486    0.0000 O   0  0  0  0  0  0  0  0  0  0  0  0
   -3.7304    0.8420    0.0000 C   0  0  0  0  0  0  0  0  0  0  0  0
   -4.9516    1.7130    0.0000 O   0  0  0  0  0  0  0  0  0  0  0  0
  1  2  1  0
  3  2  1  6
  3  4  1  0
  4  5  1  0
  5  6  1  1
  6  7  1  0
  5  8  1  0
  9  8  1  6
  9 10  1  0
 10 11  1  0
 11 12  1  1
 12 13  1  0
 11 14  1  0
 14 15  1  6
 14 16  1  0
 16 17  1  1
 16 18  1  0
 18 19  1  6
  5 20  1  0
 20 21  1  6
 20 22  1  0
 22 23  1  1
 22  3  1  0
 18  9  1  0
M  END
>  <zinc_id>  (1) 
ZINC000004217475

>  <smiles>  (1) 
OC[C@H]1O[C@H](O[C@]2(CO)O[C@H](CO)[C@@H](O)[C@@H]2O)[C@H](O)[C@@H](O)[C@@H]1O

$$$$
