
     RDKit          3D

 20 21  0  0  0  0  0  0  0  0999 V2000
   -4.3452   -2.3076    0.2364 C   0  0  0  0  0  0  0  0  0  0  0  0
   -3.9760   -1.1174    0.0303 C   0  0  0  0  0  0  0  0  0  0  0  0
   -2.9149   -0.7312    1.0276 C   0  0  0  0  0  0  0  0  0  0  0  0
   -2.4634    0.5611    0.8627 N   0  0  0  0  0  0  0  0  0  0  0  0
   -3.1539    1.6940    1.0824 C   0  0  0  0  0  0  0  0  0  0  0  0
   -3.5325    2.3935   -0.2048 C   0  0  0  0  0  0  0  0  0  0  0  0
   -2.2623    2.9853   -0.7720 C   0  0  0  0  0  0  0  0  0  0  0  0
   -1.1096    2.2516   -0.1649 C   0  0  0  0  0  0  0  0  0  0  0  0
   -1.5311    0.6397   -0.4148 C   0  0  1  0  0  0  0  0  0  0  0  0
   -0.2098    0.0710    0.2420 C   0  0  0  0  0  0  0  0  0  0  0  0
   -0.0697   -0.2900    1.3619 O   0  0  0  0  0  0  0  0  0  0  0  0
    0.8380    0.0286   -0.6649 N   0  0  0  0  0  0  0  0  0  0  0  0
    2.1229   -0.4484   -0.2932 C   0  0  0  0  0  0  0  0  0  0  0  0
    3.0659    0.4170    0.2086 C   0  0  0  0  0  0  0  0  0  0  0  0
    2.7485    1.8515    0.3677 C   0  0  0  0  0  0  0  0  0  0  0  0
    4.3367    0.0088    0.5864 C   0  0  0  0  0  0  0  0  0  0  0  0
    4.7079   -1.3229    0.4666 C   0  0  0  0  0  0  0  0  0  0  0  0
    3.7645   -2.2092   -0.0395 C   0  0  0  0  0  0  0  0  0  0  0  0
    2.5004   -1.7670   -0.4081 C   0  0  0  0  0  0  0  0  0  0  0  0
    1.4835   -2.7086   -0.9502 C   0  0  0  0  0  0  0  0  0  0  0  0
  1  2  1  0
  2  3  1  0
  3  4  1  0
  4  5  1  0
  5  6  1  0
  6  7  1  0
  7  8  1  0
  8  9  1  0
  9 10  1  1
 10 11  2  0
 10 12  1  0
 12 13  1  0
 13 14  2  0
 14 15  1  0
 14 16  1  0
 16 17  2  0
 17 18  1  0
 18 19  2  0
 19 20  1  0
  9  4  1  0
 19 13  1  0
M  END
>  <zinc_id>  (1) 
ZINC000000897002

>  <smiles>  (1) 
CCCN1CCCC[C@H]1C(=O)Nc1c(C)cccc1C

$$$$
