
     RDKit          3D

 35 35  0  0  0  0  0  0  0  0999 V2000
    7.7062    4.2528    2.3873 C   0  0  0  0  0  0  0  0  0  0  0  0
    7.3843    4.0688    1.8000 C   0  0  0  0  0  0  0  0  0  0  0  0
    7.4268    2.8335    0.9170 C   0  0  0  0  0  0  0  0  0  0  0  0
    6.4806    3.0151   -0.2575 C   0  0  0  0  0  0  0  0  0  0  0  0
    5.0731    3.2201    0.2007 C   0  0  0  0  0  0  0  0  0  0  0  0
    4.5694    2.0449    1.0028 C   0  0  0  0  0  0  0  0  0  0  0  0
    4.6296    0.8103    0.1150 C   0  0  0  0  0  0  0  0  0  0  0  0
    4.1145   -0.3435    0.9616 C   0  0  0  0  0  0  0  0  0  0  0  0
    2.6900    0.0340    1.3534 C   0  0  0  0  0  0  0  0  0  0  0  0
    1.9101    0.2018    0.0701 C   0  0  0  0  0  0  0  0  0  0  0  0
    0.5043    0.5758    0.4449 C   0  0  0  0  0  0  0  0  0  0  0  0
   -0.0178   -0.6570    1.3292 C   0  0  1  0  0  0  0  0  0  0  0  0
   -1.4698   -0.1462    1.6508 C   0  0  0  0  0  0  0  0  0  0  0  0
   -2.3826    0.0867    0.4027 C   0  0  2  0  0  0  0  0  0  0  0  0
   -1.6495    1.1612   -0.3223 O   0  0  0  0  0  0  0  0  0  0  0  0
   -2.2322    2.2566    0.2612 C   0  0  0  0  0  0  0  0  0  0  0  0
   -2.0595    3.4706    0.1310 O   0  0  0  0  0  0  0  0  0  0  0  0
   -3.1845    1.4154    1.1458 C   0  0  1  0  0  0  0  0  0  0  0  0
   -4.4865    1.2335    0.2806 C   0  0  0  0  0  0  0  0  0  0  0  0
   -4.4997    1.3062   -1.0956 C   0  0  0  0  0  0  0  0  0  0  0  0
   -4.1989    2.3488   -2.0089 C   0  0  0  0  0  0  0  0  0  0  0  0
   -4.9723    3.6168   -1.9972 C   0  0  0  0  0  0  0  0  0  0  0  0
   -4.4719    4.5102   -3.1021 C   0  0  0  0  0  0  0  0  0  0  0  0
   -3.0241    4.8868   -3.0158 C   0  0  0  0  0  0  0  0  0  0  0  0
   -0.1814   -1.6341    0.1943 O   0  0  0  0  0  0  0  0  0  0  0  0
   -0.6097   -2.8285    0.6140 C   0  0  0  0  0  0  0  0  0  0  0  0
   -0.7960   -2.9393    1.7691 O   0  0  0  0  0  0  0  0  0  0  0  0
   -0.8512   -4.0395   -0.4085 C   0  0  2  0  0  0  0  0  0  0  0  0
   -2.3899   -3.6058   -0.7413 C   0  0  0  0  0  0  0  0  0  0  0  0
   -2.9127   -4.6058   -1.7250 C   0  0  0  0  0  0  0  0  0  0  0  0
   -2.1450   -4.6624   -3.0014 C   0  0  0  0  0  0  0  0  0  0  0  0
   -3.2685   -5.9190   -1.1393 C   0  0  0  0  0  0  0  0  0  0  0  0
   -1.2866   -5.0715    0.6686 N   0  0  0  0  0  0  0  0  0  0  0  0
   -0.2799   -5.6469    1.4848 C   0  0  0  0  0  0  0  0  0  0  0  0
    0.8813   -5.2503    1.2424 O   0  0  0  0  0  0  0  0  0  0  0  0
  1  2  1  0
  2  3  1  0
  3  4  1  0
  4  5  1  0
  5  6  1  0
  6  7  1  0
  7  8  1  0
  8  9  1  0
  9 10  1  0
 10 11  1  0
 12 11  1  6
 12 13  1  0
 14 13  1  1
 14 15  1  0
 15 16  1  0
 16 17  2  0
 16 18  1  0
 18 19  1  6
 19 20  1  0
 20 21  1  0
 21 22  1  0
 22 23  1  0
 23 24  1  0
 12 25  1  0
 25 26  1  0
 26 27  2  0
 26 28  1  0
 28 29  1  6
 29 30  1  0
 30 31  1  0
 30 32  1  0
 28 33  1  0
 33 34  1  0
 34 35  2  0
 18 14  1  0
M  END
>  <zinc_id>  (1) 
ZINC000008214635

>  <smiles>  (1) 
CCCCCCCCCCC[C@@H](C[C@@H]1OC(=O)[C@H]1CCCCCC)OC(=O)[C@H](CC(C)C)NC=O

$$$$
