
     RDKit          3D

 40 43  0  0  0  0  0  0  0  0999 V2000
   -4.8578   -2.3256    0.5597 C   0  0  0  0  0  0  0  0  0  0  0  0
   -4.8562   -2.8399   -0.5246 C   0  0  0  0  0  0  0  0  0  0  0  0
   -5.8844   -3.7470   -0.8235 C   0  0  0  0  0  0  0  0  0  0  0  0
   -6.8886   -4.0631    0.0829 O   0  0  0  0  0  0  0  0  0  0  0  0
   -5.9481   -4.3884   -2.0721 C   0  0  0  0  0  0  0  0  0  0  0  0
   -4.9879   -4.1268   -3.0247 C   0  0  0  0  0  0  0  0  0  0  0  0
   -3.9748   -3.2265   -2.7154 C   0  0  0  0  0  0  0  0  0  0  0  0
   -3.9032   -2.5877   -1.4849 C   0  0  0  0  0  0  0  0  0  0  0  0
   -2.8378   -1.6419   -1.1682 C   0  0  0  0  0  0  0  0  0  0  0  0
   -1.9378   -1.3972   -2.0175 O   0  0  0  0  0  0  0  0  0  0  0  0
   -2.7028   -0.9515    0.0214 N   0  0  0  0  0  0  0  0  0  0  0  0
   -1.4380    0.0545    0.1588 C   0  0  1  0  0  0  0  0  0  0  0  0
   -2.2218    0.7863    1.3827 C   0  0  0  0  0  0  0  0  0  0  0  0
   -1.1718    2.1587    1.8591 S   0  0  0  0  0  0  0  0  0  0  0  0
   -1.1352    3.4258    0.6147 C   0  0  0  0  0  0  0  0  0  0  0  0
   -2.0273    4.4710    0.6385 C   0  0  0  0  0  0  0  0  0  0  0  0
   -1.9670    5.4190   -0.3512 C   0  0  0  0  0  0  0  0  0  0  0  0
   -1.0516    5.3486   -1.3485 C   0  0  0  0  0  0  0  0  0  0  0  0
   -0.1527    4.3145   -1.3911 C   0  0  0  0  0  0  0  0  0  0  0  0
   -0.2081    3.3526   -0.3929 C   0  0  0  0  0  0  0  0  0  0  0  0
   -0.4896   -1.0940    1.0071 C   0  0  2  0  0  0  0  0  0  0  0  0
   -1.3186   -1.2038    2.2404 O   0  0  0  0  0  0  0  0  0  0  0  0
    0.5983   -0.1103    1.6043 C   0  0  0  0  0  0  0  0  0  0  0  0
    1.6208    0.1264    0.6460 N   0  0  0  0  0  0  0  0  0  0  0  0
    2.4445   -0.8362    0.1862 C   0  0  0  0  0  0  0  0  0  0  0  0
    2.8470   -2.0198    1.1987 C   0  0  1  0  0  0  0  0  0  0  0  0
    4.4048   -1.9524    0.7844 C   0  0  0  0  0  0  0  0  0  0  0  0
    5.2654   -2.6514    1.7317 C   0  0  0  0  0  0  0  0  0  0  0  0
    5.2959   -1.6870    2.9394 C   0  0  0  0  0  0  0  0  0  0  0  0
    3.9505   -1.7639    3.4395 C   0  0  0  0  0  0  0  0  0  0  0  0
    2.8307   -1.0359    2.5766 C   0  0  1  0  0  0  0  0  0  0  0  0
    3.6743    0.1700    1.9340 C   0  0  0  0  0  0  0  0  0  0  0  0
    2.4698    1.1962    1.4775 C   0  0  1  0  0  0  0  0  0  0  0  0
    3.2568    1.7908    0.2533 C   0  0  0  0  0  0  0  0  0  0  0  0
    4.1214    2.6538    0.4859 O   0  0  0  0  0  0  0  0  0  0  0  0
    3.0382    1.4069   -1.0581 N   0  0  0  0  0  0  0  0  0  0  0  0
    3.8430    2.0388   -2.1124 C   0  0  0  0  0  0  0  0  0  0  0  0
    3.5998    3.5519   -2.0767 C   0  0  0  0  0  0  0  0  0  0  0  0
    5.2781    1.8066   -1.7862 C   0  0  0  0  0  0  0  0  0  0  0  0
    3.4216    1.5779   -3.4746 C   0  0  0  0  0  0  0  0  0  0  0  0
  1  2  1  0
  2  3  2  0
  3  4  1  0
  3  5  1  0
  5  6  2  0
  6  7  1  0
  7  8  2  0
  8  9  1  0
  9 10  2  0
  9 11  1  0
 11 12  1  0
 12 13  1  1
 13 14  1  0
 14 15  1  0
 15 16  2  0
 16 17  1  0
 17 18  2  0
 18 19  1  0
 19 20  2  0
 12 21  1  0
 21 22  1  1
 21 23  1  0
 23 24  1  0
 24 25  1  0
 26 25  1  6
 26 27  1  0
 27 28  1  0
 28 29  1  0
 29 30  1  0
 31 30  1  1
 31 32  1  0
 32 33  1  0
 33 34  1  6
 34 35  2  0
 34 36  1  0
 36 37  1  0
 37 38  1  0
 37 39  1  0
 37 40  1  0
  8  2  1  0
 20 15  1  0
 33 24  1  0
 31 26  1  0
M  END
>  <zinc_id>  (1) 
ZINC000003833846

>  <smiles>  (1) 
Cc1c(O)cccc1C(=O)N[C@@H](CSc1ccccc1)[C@H](O)CN1C[C@H]2CCCC[C@H]2C[C@H]1C(=O)NC(C)(C)C

$$$$
