
     RDKit          3D

 23 26  0  0  0  0  0  0  0  0999 V2000
   -5.2908    1.3025    0.8952 C   0  0  0  0  0  0  0  0  0  0  0  0
   -4.3443    0.7610    0.3829 C   0  0  0  0  0  0  0  0  0  0  0  0
   -3.2460    0.1265   -0.2472 C   0  0  2  0  0  0  0  0  0  0  0  0
   -3.5288    0.1446   -1.6389 O   0  0  0  0  0  0  0  0  0  0  0  0
   -3.1020   -1.3843    0.0676 C   0  0  0  0  0  0  0  0  0  0  0  0
   -1.5866   -1.7007   -0.1739 C   0  0  0  0  0  0  0  0  0  0  0  0
   -1.4072   -0.4295   -1.1098 C   0  0  2  0  0  0  0  0  0  0  0  0
    0.1934   -0.1331   -1.2381 C   0  0  2  0  0  0  0  0  0  0  0  0
    0.6134   -1.6525   -1.4079 C   0  0  0  0  0  0  0  0  0  0  0  0
    2.0127   -1.8988   -1.2584 C   0  0  0  0  0  0  0  0  0  0  0  0
    2.7445   -0.8561   -0.6466 C   0  0  0  0  0  0  0  0  0  0  0  0
    4.0989   -0.8006   -0.5561 C   0  0  0  0  0  0  0  0  0  0  0  0
    4.7332    0.3396    0.1074 C   0  0  0  0  0  0  0  0  0  0  0  0
    5.5940    1.0829   -0.3803 O   0  0  0  0  0  0  0  0  0  0  0  0
    4.1961    0.5148    1.5156 C   0  0  0  0  0  0  0  0  0  0  0  0
    2.7233    0.0546    1.5161 C   0  0  0  0  0  0  0  0  0  0  0  0
    2.1940    0.4310    0.0333 C   0  0  2  0  0  0  0  0  0  0  0  0
    0.6279   -0.0074    0.3675 C   0  0  1  0  0  0  0  0  0  0  0  0
    0.1753    1.5224    0.4843 C   0  0  0  0  0  0  0  0  0  0  0  0
   -1.1952    1.7154   -0.1350 C   0  0  0  0  0  0  0  0  0  0  0  0
   -1.8764    0.5301    0.1201 C   0  0  1  0  0  0  0  0  0  0  0  0
   -1.7122   -0.0483    1.4390 C   0  0  0  0  0  0  0  0  0  0  0  0
   -2.6172    0.3857    2.4557 C   0  0  0  0  0  0  0  0  0  0  0  0
  1  2  3  0
  2  3  1  0
  3  4  1  6
  3  5  1  0
  5  6  1  0
  7  6  1  1
  7  8  1  0
  8  9  1  1
  9 10  1  0
 10 11  1  0
 11 12  2  0
 12 13  1  0
 13 14  2  0
 13 15  1  0
 15 16  1  0
 17 16  1  1
 17 18  1  0
 18 19  1  6
 19 20  1  0
 20 21  1  0
 21 22  1  1
 22 23  1  0
 21  3  1  0
 21  7  1  0
 18  8  1  0
 17 11  1  0
M  END
>  <zinc_id>  (1) 
ZINC000000968375

>  <smiles>  (1) 
C#C[C@]1(O)CC[C@@H]2[C@@H]3CCC4=CC(=O)CC[C@@H]4[C@H]3CC[C@]21CC

$$$$
