
     RDKit          3D

 29 31  0  0  0  0  0  0  0  0999 V2000
   -4.3238    1.0585   -2.1118 C   0  0  0  0  0  0  0  0  0  0  0  0
   -5.1799    0.6580   -1.4133 C   0  0  0  0  0  0  0  0  0  0  0  0
   -6.5585    0.2556   -1.8536 C   0  0  0  0  0  0  0  0  0  0  0  0
   -7.4554    0.6994   -0.7127 C   0  0  0  0  0  0  0  0  0  0  0  0
   -7.1750   -0.4534    0.4447 C   0  0  2  0  0  0  0  0  0  0  0  0
   -8.1286    0.2038    1.4157 O   0  0  0  0  0  0  0  0  0  0  0  0
   -5.8783    0.3052    1.0790 C   0  0  0  0  0  0  0  0  0  0  0  0
   -4.9066    0.5304    0.0102 C   0  0  0  0  0  0  0  0  0  0  0  0
   -3.6367    0.6203    0.4493 C   0  0  0  0  0  0  0  0  0  0  0  0
   -2.5249    0.8409   -0.4500 C   0  0  0  0  0  0  0  0  0  0  0  0
   -1.3552    0.9068    0.1071 C   0  0  0  0  0  0  0  0  0  0  0  0
   -1.2732    0.7572    1.5408 C   0  0  0  0  0  0  0  0  0  0  0  0
   -0.0269    1.2350    2.2050 C   0  0  0  0  0  0  0  0  0  0  0  0
    1.1741    1.3417    1.2943 C   0  0  0  0  0  0  0  0  0  0  0  0
    0.9690    0.3816    0.2164 C   0  0  1  0  0  0  0  0  0  0  0  0
    0.5412   -0.9658    0.4710 C   0  0  0  0  0  0  0  0  0  0  0  0
   -0.0855    1.1454   -0.7990 C   0  0  1  0  0  0  0  0  0  0  0  0
   -0.2046   -0.2116   -1.6714 C   0  0  0  0  0  0  0  0  0  0  0  0
    1.2193   -0.5750   -1.8919 C   0  0  0  0  0  0  0  0  0  0  0  0
    2.0643    0.4145   -0.9146 C   0  0  2  0  0  0  0  0  0  0  0  0
    2.9505   -0.8979   -0.2789 C   0  0  2  0  0  0  0  0  0  0  0  0
    3.2569   -0.1595    1.0793 C   0  0  0  0  0  0  0  0  0  0  0  0
    4.2775   -0.5261   -1.0544 C   0  0  0  0  0  0  0  0  0  0  0  0
    5.3466   -1.3960   -0.8589 C   0  0  0  0  0  0  0  0  0  0  0  0
    6.2471   -1.9143    0.0101 C   0  0  0  0  0  0  0  0  0  0  0  0
    7.3501   -1.2751    0.7355 C   0  0  0  0  0  0  0  0  0  0  0  0
    6.8907   -0.1772    1.6398 C   0  0  0  0  0  0  0  0  0  0  0  0
    8.3824   -0.6399   -0.2107 C   0  0  0  0  0  0  0  0  0  0  0  0
    8.0435   -2.2317    1.5230 O   0  0  0  0  0  0  0  0  0  0  0  0
  1  2  2  0
  2  3  1  0
  3  4  1  0
  4  5  1  0
  5  6  1  1
  5  7  1  0
  7  8  1  0
  8  9  2  0
  9 10  1  0
 10 11  2  0
 11 12  1  0
 12 13  1  0
 13 14  1  0
 14 15  1  0
 15 16  1  1
 15 17  1  0
 17 18  1  6
 18 19  1  0
 20 19  1  6
 20 21  1  0
 21 22  1  1
 21 23  1  0
 23 24  1  0
 24 25  1  0
 25 26  1  0
 26 27  1  0
 26 28  1  0
 26 29  1  0
  8  2  1  0
 17 11  1  0
 20 15  1  0
M  END
>  <zinc_id>  (1) 
ZINC000004474414

>  <smiles>  (1) 
C=C1CC[C@H](O)C/C1=C/C=C1\CCC[C@@]2(C)[C@H]1CC[C@@H]2[C@H](C)CCCC(C)(C)O

$$$$
