
     RDKit          3D

 18 18  0  0  0  0  0  0  0  0999 V2000
    4.8276    0.4758    0.1203 C   0  0  0  0  0  0  0  0  0  0  0  0
    4.7408   -0.1670    0.2681 C   0  0  0  0  0  0  0  0  0  0  0  0
    5.4265   -0.8737    1.4722 C   0  0  0  0  0  0  0  0  0  0  0  0
    4.0874   -1.1143   -0.5393 N   0  0  0  0  0  0  0  0  0  0  0  0
    2.7336   -1.0389   -0.8499 C   0  0  0  0  0  0  0  0  0  0  0  0
    1.9103   -1.4306    0.4657 C   0  0  1  0  0  0  0  0  0  0  0  0
    2.3855   -0.3198    1.3296 O   0  0  0  0  0  0  0  0  0  0  0  0
    0.5473   -0.7902    0.0576 C   0  0  0  0  0  0  0  0  0  0  0  0
    0.1448   -0.8936   -1.2393 C   0  0  0  0  0  0  0  0  0  0  0  0
   -1.0852   -0.3257   -1.6389 C   0  0  0  0  0  0  0  0  0  0  0  0
   -1.8672    0.3275   -0.7161 C   0  0  0  0  0  0  0  0  0  0  0  0
   -3.1339    0.9155   -1.1164 N   0  0  0  0  0  0  0  0  0  0  0  0
   -4.4661    0.6047   -0.0369 S   0  0  0  0  0  0  0  0  0  0  0  0
   -4.7774   -1.1209    0.0603 C   0  0  0  0  0  0  0  0  0  0  0  0
   -5.6428    1.3866   -0.5214 O   0  0  0  0  0  0  0  0  0  0  0  0
   -4.1404    1.1170    1.3537 O   0  0  0  0  0  0  0  0  0  0  0  0
   -1.4446    0.4209    0.5846 C   0  0  0  0  0  0  0  0  0  0  0  0
   -0.2460   -0.1394    0.9465 C   0  0  0  0  0  0  0  0  0  0  0  0
  1  2  1  0
  2  3  1  0
  2  4  1  0
  4  5  1  0
  5  6  1  0
  6  7  1  1
  6  8  1  0
  8  9  2  0
  9 10  1  0
 10 11  2  0
 11 12  1  0
 12 13  1  0
 13 14  1  0
 13 15  2  0
 13 16  2  0
 11 17  1  0
 17 18  2  0
 18  8  1  0
M  END
>  <zinc_id>  (1) 
ZINC000000004166

>  <smiles>  (1) 
CC(C)NC[C@@H](O)c1ccc(NS(C)(=O)=O)cc1

$$$$
