
     RDKit          3D

 26 28  0  0  0  0  0  0  0  0999 V2000
   -3.3462   -0.8558    3.0913 C   0  0  0  0  0  0  0  0  0  0  0  0
   -3.3407   -0.7616    2.1246 C   0  0  0  0  0  0  0  0  0  0  0  0
   -2.6073   -1.5841    1.2351 C   0  0  0  0  0  0  0  0  0  0  0  0
   -4.8870   -0.2269    1.5905 C   0  0  2  0  0  0  0  0  0  0  0  0
   -4.9514   -0.7919    0.0930 C   0  0  0  0  0  0  0  0  0  0  0  0
   -6.0910   -0.5513   -0.4881 C   0  0  0  0  0  0  0  0  0  0  0  0
   -7.4464    0.2917    0.2299 Cl  0  0  0  0  0  0  0  0  0  0  0  0
   -6.2898   -1.1226   -2.1420 Cl  0  0  0  0  0  0  0  0  0  0  0  0
   -3.5699    0.8813    1.6221 C   0  0  2  0  0  0  0  0  0  0  0  0
   -2.9491    0.8936    0.1663 C   0  0  0  0  0  0  0  0  0  0  0  0
   -3.6466    1.2662   -0.7777 O   0  0  0  0  0  0  0  0  0  0  0  0
   -1.6563    0.4920   -0.0053 O   0  0  0  0  0  0  0  0  0  0  0  0
   -1.0311    0.4761   -1.2744 C   0  0  0  0  0  0  0  0  0  0  0  0
    0.3704   -0.0168   -1.0776 C   0  0  0  0  0  0  0  0  0  0  0  0
    0.6362   -1.3672   -1.1574 C   0  0  0  0  0  0  0  0  0  0  0  0
    1.9285   -1.8123   -0.9752 C   0  0  0  0  0  0  0  0  0  0  0  0
    2.9381   -0.9015   -0.7155 C   0  0  0  0  0  0  0  0  0  0  0  0
    2.7011    0.4540   -0.6302 C   0  0  0  0  0  0  0  0  0  0  0  0
    3.7457    1.3354   -0.3673 O   0  0  0  0  0  0  0  0  0  0  0  0
    5.0463    0.9191   -0.1809 C   0  0  0  0  0  0  0  0  0  0  0  0
    5.8973    0.8203   -1.2560 C   0  0  0  0  0  0  0  0  0  0  0  0
    7.2234    0.4006   -1.0990 C   0  0  0  0  0  0  0  0  0  0  0  0
    7.6349    0.0942    0.1639 C   0  0  0  0  0  0  0  0  0  0  0  0
    6.8008    0.1864    1.2499 C   0  0  0  0  0  0  0  0  0  0  0  0
    5.4864    0.6040    1.0827 C   0  0  0  0  0  0  0  0  0  0  0  0
    1.4036    0.8772   -0.8155 C   0  0  0  0  0  0  0  0  0  0  0  0
  1  2  1  0
  2  3  1  0
  4  2  1  1
  4  5  1  0
  5  6  2  3
  6  7  1  0
  6  8  1  0
  4  9  1  0
  9 10  1  6
 10 11  2  0
 10 12  1  0
 12 13  1  0
 13 14  1  0
 14 15  2  0
 15 16  1  0
 16 17  2  0
 17 18  1  0
 18 19  1  0
 19 20  1  0
 20 21  2  0
 21 22  1  0
 22 23  2  0
 23 24  1  0
 24 25  2  0
 18 26  2  0
  9  2  1  0
 26 14  1  0
 25 20  1  0
M  END
>  <zinc_id>  (1) 
ZINC000001850377

>  <smiles>  (1) 
CC1(C)[C@H](C=C(Cl)Cl)[C@@H]1C(=O)OCc1cccc(Oc2ccccc2)c1

$$$$
