
     RDKit          3D

 22 22  0  0  0  0  0  0  0  0999 V2000
   -5.0999   -1.5915    1.2601 C   0  0  0  0  0  0  0  0  0  0  0  0
   -4.3991   -1.2779    1.0053 C   0  0  0  0  0  0  0  0  0  0  0  0
   -3.4424   -2.1477    0.9931 O   0  0  0  0  0  0  0  0  0  0  0  0
   -3.9070   -0.0527    0.5669 O   0  0  0  0  0  0  0  0  0  0  0  0
   -2.5839    0.2071    0.1709 C   0  0  0  0  0  0  0  0  0  0  0  0
   -1.6904    0.6497    1.1218 C   0  0  0  0  0  0  0  0  0  0  0  0
   -2.0675    0.8584    2.5455 C   0  0  0  0  0  0  0  0  0  0  0  0
   -0.4139    0.9059    0.7636 C   0  0  0  0  0  0  0  0  0  0  0  0
    0.0861    0.7584   -0.5139 C   0  0  0  0  0  0  0  0  0  0  0  0
    1.4003    1.0262   -0.8541 O   0  0  0  0  0  0  0  0  0  0  0  0
    2.2661    1.4635    0.1121 C   0  0  0  0  0  0  0  0  0  0  0  0
    3.7506    1.6772   -0.6282 C   0  0  2  0  0  0  0  0  0  0  0  0
    3.1110    2.7000   -1.6088 O   0  0  0  0  0  0  0  0  0  0  0  0
    3.5885    0.4444   -1.6315 C   0  0  0  0  0  0  0  0  0  0  0  0
    4.2025   -0.6470   -1.1101 N   0  0  0  0  0  0  0  0  0  0  0  0
    3.8481   -1.3366   -0.0100 C   0  0  0  0  0  0  0  0  0  0  0  0
    3.9041   -0.8120    1.3669 C   0  0  0  0  0  0  0  0  0  0  0  0
    3.9618   -2.8537   -0.0703 C   0  0  0  0  0  0  0  0  0  0  0  0
   -0.8451    0.3090   -1.4519 C   0  0  0  0  0  0  0  0  0  0  0  0
   -0.4044    0.1189   -2.8544 C   0  0  0  0  0  0  0  0  0  0  0  0
   -2.1509    0.0398   -1.1120 C   0  0  0  0  0  0  0  0  0  0  0  0
   -3.1144   -0.4395   -2.1348 C   0  0  0  0  0  0  0  0  0  0  0  0
  1  2  1  0
  2  3  2  0
  2  4  1  0
  4  5  1  0
  5  6  2  0
  6  7  1  0
  6  8  1  0
  8  9  2  0
  9 10  1  0
 10 11  1  0
 11 12  1  0
 12 13  1  6
 12 14  1  0
 14 15  1  0
 15 16  1  0
 16 17  1  0
 16 18  1  0
  9 19  1  0
 19 20  1  0
 19 21  2  0
 21 22  1  0
 21  5  1  0
M  END
>  <zinc_id>  (1) 
ZINC000000000494

>  <smiles>  (1) 
CC(=O)Oc1c(C)cc(OC[C@H](O)CNC(C)C)c(C)c1C

$$$$
