
     RDKit          3D

 12 11  0  0  0  0  0  0  0  0999 V2000
   -2.3406   -1.6178   -1.9057 O   0  0  0  0  0  0  0  0  0  0  0  0
   -2.1532   -1.2955   -0.7256 N   0  0  0  0  0  0  0  0  0  0  0  0
   -1.1240   -0.5197   -0.2487 N   0  0  0  0  0  0  0  0  0  0  0  0
   -1.3787    0.7426    0.4129 C   0  0  0  0  0  0  0  0  0  0  0  0
   -1.3944    1.8614   -0.6076 C   0  0  0  0  0  0  0  0  0  0  0  0
   -2.6699    1.5944   -1.8337 Cl  0  0  0  0  0  0  0  0  0  0  0  0
    0.2110   -0.9563   -0.4036 C   0  0  0  0  0  0  0  0  0  0  0  0
    0.4909   -2.0454   -0.9709 O   0  0  0  0  0  0  0  0  0  0  0  0
    1.2591   -0.1684    0.0809 N   0  0  0  0  0  0  0  0  0  0  0  0
    2.6515   -0.4759   -0.0014 C   0  0  0  0  0  0  0  0  0  0  0  0
    3.4052    0.6813    0.6637 C   0  0  0  0  0  0  0  0  0  0  0  0
    3.0431    2.1995   -0.1973 Cl  0  0  0  0  0  0  0  0  0  0  0  0
  1  2  2  0
  2  3  1  0
  3  4  1  0
  4  5  1  0
  5  6  1  0
  3  7  1  0
  7  8  2  0
  7  9  1  0
  9 10  1  0
 10 11  1  0
 11 12  1  0
M  END
>  <zinc_id>  (1) 
ZINC000003830387

>  <smiles>  (1) 
O=NN(CCCl)C(=O)NCCCl

$$$$
