
     RDKit          3D

 32 32  0  0  0  0  0  0  0  0999 V2000
    0.3346    7.1913    1.1960 C   0  0  0  0  0  0  0  0  0  0  0  0
    0.2704    6.2085    1.2067 O   0  0  0  0  0  0  0  0  0  0  0  0
    0.1733    5.4832    0.0148 C   0  0  0  0  0  0  0  0  0  0  0  0
    0.0921    4.0387    0.3464 C   0  0  0  0  0  0  0  0  0  0  0  0
    0.1144    3.6336    1.5239 O   0  0  0  0  0  0  0  0  0  0  0  0
   -0.0133    3.1115   -0.7227 N   0  0  0  0  0  0  0  0  0  0  0  0
   -0.0922    1.7219   -0.4231 C   0  0  0  0  0  0  0  0  0  0  0  0
    1.0660    0.9955   -0.3331 C   0  0  0  0  0  0  0  0  0  0  0  0
    2.8975    1.9783   -0.6257 I   0  0  0  0  0  0  0  0  0  0  0  0
    0.9568   -0.3357   -0.0446 C   0  0  0  0  0  0  0  0  0  0  0  0
    2.1520   -1.1545    0.0478 C   0  0  0  0  0  0  0  0  0  0  0  0
    2.0449   -2.3741    0.4167 O   0  0  0  0  0  0  0  0  0  0  0  0
    3.4493   -0.6609   -0.2563 N   0  0  0  0  0  0  0  0  0  0  0  0
    4.5411   -1.6075   -0.1089 C   0  0  0  0  0  0  0  0  0  0  0  0
    5.9039   -0.7854   -0.5375 C   0  0  2  0  0  0  0  0  0  0  0  0
    5.4309   -0.5148   -1.9670 O   0  0  0  0  0  0  0  0  0  0  0  0
    6.7552   -2.1661   -0.8625 C   0  0  0  0  0  0  0  0  0  0  0  0
    5.9833   -3.1062   -1.3828 O   0  0  0  0  0  0  0  0  0  0  0  0
   -0.3108   -0.9213    0.1505 C   0  0  0  0  0  0  0  0  0  0  0  0
   -0.2977   -2.9874    0.5898 I   0  0  0  0  0  0  0  0  0  0  0  0
   -1.4397   -0.1861    0.0572 C   0  0  0  0  0  0  0  0  0  0  0  0
   -2.7702   -0.7487    0.2489 C   0  0  0  0  0  0  0  0  0  0  0  0
   -3.2116   -0.7330    1.4133 O   0  0  0  0  0  0  0  0  0  0  0  0
   -3.5538   -1.2792   -0.8102 N   0  0  0  0  0  0  0  0  0  0  0  0
   -2.8201   -1.2887   -2.0944 C   0  0  0  0  0  0  0  0  0  0  0  0
   -4.8429   -1.6339   -0.6089 C   0  0  0  0  0  0  0  0  0  0  0  0
   -5.2897   -3.0923   -0.2177 C   0  0  1  0  0  0  0  0  0  0  0  0
   -4.6936   -3.8060   -1.4193 O   0  0  0  0  0  0  0  0  0  0  0  0
   -4.1519   -3.5355    0.8415 C   0  0  0  0  0  0  0  0  0  0  0  0
   -4.2774   -4.9440    0.7781 O   0  0  0  0  0  0  0  0  0  0  0  0
   -1.3198    1.1805   -0.2398 C   0  0  0  0  0  0  0  0  0  0  0  0
   -3.0813    2.3181   -0.3836 I   0  0  0  0  0  0  0  0  0  0  0  0
  1  2  1  0
  2  3  1  0
  3  4  1  0
  4  5  2  0
  4  6  1  0
  6  7  1  0
  7  8  2  0
  8  9  1  0
  8 10  1  0
 10 11  1  0
 11 12  2  0
 11 13  1  0
 13 14  1  0
 14 15  1  0
 15 16  1  6
 15 17  1  0
 17 18  1  0
 10 19  2  0
 19 20  1  0
 19 21  1  0
 21 22  1  0
 22 23  2  0
 22 24  1  0
 24 25  1  0
 24 26  1  0
 26 27  1  0
 27 28  1  6
 27 29  1  0
 29 30  1  0
 21 31  2  0
 31 32  1  0
 31  7  1  0
M  END
>  <zinc_id>  (1) 
ZINC000003830958

>  <smiles>  (1) 
COCC(=O)Nc1c(I)c(C(=O)NC[C@H](O)CO)c(I)c(C(=O)N(C)C[C@@H](O)CO)c1I

$$$$
