
     RDKit          3D

 22 22  0  0  0  0  0  0  0  0999 V2000
   -7.1184   -0.7971    2.4455 C   0  0  0  0  0  0  0  0  0  0  0  0
   -6.1357   -0.5576    1.3309 C   0  0  0  0  0  0  0  0  0  0  0  0
   -6.2653    0.8346    0.7505 C   0  0  0  0  0  0  0  0  0  0  0  0
   -5.2534    0.9909   -0.3510 C   0  0  0  0  0  0  0  0  0  0  0  0
   -5.5232   -0.0420   -1.4146 C   0  0  0  0  0  0  0  0  0  0  0  0
   -4.4976    0.1250   -2.5196 C   0  0  0  0  0  0  0  0  0  0  0  0
   -3.1091   -0.0682   -1.9574 C   0  0  0  0  0  0  0  0  0  0  0  0
   -2.0946    0.0941   -3.0366 C   0  0  0  0  0  0  0  0  0  0  0  0
   -0.6764   -0.0765   -2.5929 C   0  0  0  0  0  0  0  0  0  0  0  0
   -0.2868    0.9103   -1.5418 C   0  0  0  0  0  0  0  0  0  0  0  0
   -1.0744    0.8174   -0.2716 C   0  0  0  0  0  0  0  0  0  0  0  0
   -0.8571   -0.5735    0.3404 C   0  0  0  0  0  0  0  0  0  0  0  0
    0.6171   -0.7198    0.6104 C   0  0  0  0  0  0  0  0  0  0  0  0
    1.0250    0.3778    1.5777 C   0  0  0  0  0  0  0  0  0  0  0  0
    2.5274    0.1818    1.8161 C   0  0  0  0  0  0  0  0  0  0  0  0
    3.1745    0.3229    0.4377 C   0  0  0  0  0  0  0  0  0  0  0  0
    4.6069    0.1470    0.5922 N   0  0  0  0  0  0  0  0  0  0  0  0
    5.1005   -1.1121    0.4789 C   0  0  0  0  0  0  0  0  0  0  0  0
    6.4563   -1.3287    0.6181 C   0  0  0  0  0  0  0  0  0  0  0  0
    7.2621   -0.2381    0.8704 C   0  0  0  0  0  0  0  0  0  0  0  0
    6.7349    1.0163    0.9788 C   0  0  0  0  0  0  0  0  0  0  0  0
    5.3875    1.2128    0.8378 C   0  0  0  0  0  0  0  0  0  0  0  0
  1  2  1  0
  2  3  1  0
  3  4  1  0
  4  5  1  0
  5  6  1  0
  6  7  1  0
  7  8  1  0
  8  9  1  0
  9 10  1  0
 10 11  1  0
 11 12  1  0
 12 13  1  0
 13 14  1  0
 14 15  1  0
 15 16  1  0
 16 17  1  0
 17 18  2  0
 18 19  1  0
 19 20  2  0
 20 21  1  0
 21 22  2  0
 22 17  1  0
M  CHG  1  17   1
M  END
>  <zinc_id>  (1) 
ZINC000006845963

>  <smiles>  (1) 
CCCCCCCCCCCCCCCC[n+]1ccccc1

$$$$
