
     RDKit          3D

 30 31  0  0  0  0  0  0  0  0999 V2000
   -4.1278    2.5389    1.5489 C   0  0  0  0  0  0  0  0  0  0  0  0
   -2.8750    2.9559    1.2251 C   0  0  0  0  0  0  0  0  0  0  0  0
   -2.8504    4.3798    0.6819 C   0  0  0  0  0  0  0  0  0  0  0  0
   -2.3051    2.0595    0.1923 C   0  0  0  0  0  0  0  0  0  0  0  0
   -1.9620    2.4658   -0.9339 O   0  0  0  0  0  0  0  0  0  0  0  0
   -2.1458    0.7277    0.4800 O   0  0  0  0  0  0  0  0  0  0  0  0
   -1.6357   -0.2370   -0.3512 C   0  0  0  0  0  0  0  0  0  0  0  0
   -2.4357   -0.7870   -1.3572 C   0  0  0  0  0  0  0  0  0  0  0  0
   -1.9243   -1.7505   -2.1864 C   0  0  0  0  0  0  0  0  0  0  0  0
   -0.6289   -2.1818   -2.0373 C   0  0  0  0  0  0  0  0  0  0  0  0
   -0.0423   -3.2336   -2.9279 C   0  0  0  0  0  0  0  0  0  0  0  0
   -1.0396   -3.6232   -3.8232 O   0  0  0  0  0  0  0  0  0  0  0  0
    0.1115   -1.6117   -1.0376 C   0  0  0  0  0  0  0  0  0  0  0  0
   -0.3445   -0.6725   -0.2080 C   0  0  0  0  0  0  0  0  0  0  0  0
    0.5106   -0.0555    0.9667 C   0  0  2  0  0  0  0  0  0  0  0  0
    1.9171   -0.7248    0.6238 C   0  0  0  0  0  0  0  0  0  0  0  0
    2.3364   -0.2746   -0.6722 C   0  0  0  0  0  0  0  0  0  0  0  0
    2.6899    0.9573   -1.0711 N   0  0  0  0  0  0  0  0  0  0  0  0
    1.9850    2.1270   -1.1927 C   0  0  0  0  0  0  0  0  0  0  0  0
    1.5116    2.7362    0.0633 C   0  0  0  0  0  0  0  0  0  0  0  0
    2.3055    3.0672   -2.3021 C   0  0  0  0  0  0  0  0  0  0  0  0
    4.1038    1.0976   -1.4893 C   0  0  0  0  0  0  0  0  0  0  0  0
    5.0215    0.8022   -0.3223 C   0  0  0  0  0  0  0  0  0  0  0  0
    4.3778    0.0985   -2.5921 C   0  0  0  0  0  0  0  0  0  0  0  0
    0.0410   -1.0370    2.1082 C   0  0  0  0  0  0  0  0  0  0  0  0
   -0.9175   -0.5585    2.9468 C   0  0  0  0  0  0  0  0  0  0  0  0
   -1.4041   -1.3323    3.9828 C   0  0  0  0  0  0  0  0  0  0  0  0
   -0.8895   -2.6087    4.1445 C   0  0  0  0  0  0  0  0  0  0  0  0
    0.0777   -3.0599    3.2792 C   0  0  0  0  0  0  0  0  0  0  0  0
    0.5387   -2.2651    2.2607 C   0  0  0  0  0  0  0  0  0  0  0  0
  1  2  1  0
  2  3  1  0
  2  4  1  0
  4  5  2  0
  4  6  1  0
  6  7  1  0
  7  8  2  0
  8  9  1  0
  9 10  2  0
 10 11  1  0
 11 12  1  0
 10 13  1  0
 13 14  2  0
 14 15  1  0
 15 16  1  6
 16 17  1  0
 17 18  1  0
 18 19  1  0
 19 20  1  0
 19 21  1  0
 18 22  1  0
 22 23  1  0
 22 24  1  0
 15 25  1  0
 25 26  2  0
 26 27  1  0
 27 28  2  0
 28 29  1  0
 29 30  2  0
 14  7  1  0
 30 25  1  0
M  END
>  <zinc_id>  (1) 
ZINC000001552908

>  <smiles>  (1) 
CC(C)C(=O)Oc1ccc(CO)cc1[C@H](CCN(C(C)C)C(C)C)c1ccccc1

$$$$
