
     RDKit          3D

 18 19  0  0  0  0  0  0  0  0999 V2000
   -2.2446    2.8326    1.5306 C   0  0  0  0  0  0  0  0  0  0  0  0
   -1.8521    3.1989    0.1965 N   0  0  0  0  0  0  0  0  0  0  0  0
   -2.9273    3.9439   -0.3991 C   0  0  0  0  0  0  0  0  0  0  0  0
   -1.4002    2.0991   -0.5728 C   0  0  0  0  0  0  0  0  0  0  0  0
   -0.1008    1.5495   -0.0785 C   0  0  0  0  0  0  0  0  0  0  0  0
    0.2234    0.3530   -1.1162 C   0  0  1  0  0  0  0  0  0  0  0  0
    1.6021   -0.1217   -0.4948 C   0  0  0  0  0  0  0  0  0  0  0  0
    2.0792    0.3389    0.6586 C   0  0  0  0  0  0  0  0  0  0  0  0
    3.2811   -0.1079    1.1535 C   0  0  0  0  0  0  0  0  0  0  0  0
    4.0187   -1.0440    0.4636 C   0  0  0  0  0  0  0  0  0  0  0  0
    3.5055   -1.5063   -0.7277 C   0  0  0  0  0  0  0  0  0  0  0  0
    2.3034   -1.0536   -1.2133 C   0  0  0  0  0  0  0  0  0  0  0  0
   -0.6637   -0.7654   -0.4156 C   0  0  0  0  0  0  0  0  0  0  0  0
   -0.9800   -0.7337    0.8753 C   0  0  0  0  0  0  0  0  0  0  0  0
   -1.7508   -1.7319    1.4278 C   0  0  0  0  0  0  0  0  0  0  0  0
   -2.1832   -2.7484    0.6344 C   0  0  0  0  0  0  0  0  0  0  0  0
   -1.8319   -2.7425   -0.7001 C   0  0  0  0  0  0  0  0  0  0  0  0
   -1.0787   -1.7604   -1.2222 N   0  0  0  0  0  0  0  0  0  0  0  0
  1  2  1  0
  2  3  1  0
  2  4  1  0
  4  5  1  0
  6  5  1  1
  6  7  1  0
  7  8  2  0
  8  9  1  0
  9 10  2  0
 10 11  1  0
 11 12  2  0
  6 13  1  0
 13 14  2  0
 14 15  1  0
 15 16  2  0
 16 17  1  0
 17 18  2  0
 12  7  1  0
 18 13  1  0
M  END
>  <zinc_id>  (1) 
ZINC000000000607

>  <smiles>  (1) 
CN(C)CC[C@@H](c1ccccc1)c1ccccn1

$$$$
