
     RDKit          3D

 28 30  0  0  0  0  0  0  0  0999 V2000
   -5.5658    2.6570   -0.3912 C   0  0  0  0  0  0  0  0  0  0  0  0
   -5.3761    2.2615   -0.3357 O   0  0  0  0  0  0  0  0  0  0  0  0
   -4.6258    1.1057   -0.1597 C   0  0  0  0  0  0  0  0  0  0  0  0
   -3.2734    1.2140   -0.0740 C   0  0  0  0  0  0  0  0  0  0  0  0
   -2.4740    0.1005    0.1030 C   0  0  0  0  0  0  0  0  0  0  0  0
   -1.1614    0.2290    0.1778 N   0  0  0  0  0  0  0  0  0  0  0  0
   -0.3608   -0.8453    0.3447 C   0  0  0  0  0  0  0  0  0  0  0  0
    1.0344   -0.5784    0.4074 N   0  0  0  0  0  0  0  0  0  0  0  0
    1.7597   -0.3920   -0.8312 C   0  0  0  0  0  0  0  0  0  0  0  0
    1.7685   -0.4869    1.6422 C   0  0  0  0  0  0  0  0  0  0  0  0
    2.2146    0.8844    1.9007 C   0  0  0  0  0  0  0  0  0  0  0  0
    3.0987    1.5743    0.9640 C   0  0  0  0  0  0  0  0  0  0  0  0
    4.3967    0.9773    0.7109 N   0  0  0  0  0  0  0  0  0  0  0  0
    5.2966    1.6012   -0.1519 C   0  0  0  0  0  0  0  0  0  0  0  0
    4.9749    2.6678   -0.6988 O   0  0  0  0  0  0  0  0  0  0  0  0
    6.6635    0.9266   -0.3808 C   0  0  2  0  0  0  0  0  0  0  0  0
    6.4484    0.3537   -1.8690 C   0  0  0  0  0  0  0  0  0  0  0  0
    5.5026   -0.7619   -1.7232 C   0  0  0  0  0  0  0  0  0  0  0  0
    5.6223   -1.1037   -0.2881 C   0  0  0  0  0  0  0  0  0  0  0  0
    6.5167   -0.3350    0.3337 O   0  0  0  0  0  0  0  0  0  0  0  0
   -0.8875   -2.0936    0.4403 N   0  0  0  0  0  0  0  0  0  0  0  0
   -2.2310   -2.2215    0.3635 C   0  0  0  0  0  0  0  0  0  0  0  0
   -2.8102   -3.5185    0.4667 N   0  0  0  0  0  0  0  0  0  0  0  0
   -3.0554   -1.1357    0.1933 C   0  0  0  0  0  0  0  0  0  0  0  0
   -4.4155   -1.2438    0.1073 C   0  0  0  0  0  0  0  0  0  0  0  0
   -5.1929   -0.1402   -0.0667 C   0  0  0  0  0  0  0  0  0  0  0  0
   -6.5648   -0.2595   -0.1515 O   0  0  0  0  0  0  0  0  0  0  0  0
   -7.3029   -1.4371   -0.0773 C   0  0  0  0  0  0  0  0  0  0  0  0
  1  2  1  0
  2  3  1  0
  3  4  2  0
  4  5  1  0
  5  6  2  0
  6  7  1  0
  7  8  1  0
  8  9  1  0
  8 10  1  0
 10 11  1  0
 11 12  1  0
 12 13  1  0
 13 14  1  0
 14 15  2  0
 16 14  1  1
 16 17  1  0
 17 18  1  0
 18 19  1  0
 19 20  1  0
  7 21  2  0
 21 22  1  0
 22 23  1  0
 22 24  2  0
 24 25  1  0
 25 26  2  0
 26 27  1  0
 27 28  1  0
 26  3  1  0
 24  5  1  0
 20 16  1  0
M  END
>  <zinc_id>  (1) 
ZINC000001542392

>  <smiles>  (1) 
COc1cc2nc(N(C)CCCNC(=O)[C@@H]3CCCO3)nc(N)c2cc1OC

$$$$
