
     RDKit          3D

 17 18  0  0  0  0  0  0  0  0999 V2000
   -1.1493    2.8632    0.1026 C   0  0  0  0  0  0  0  0  0  0  0  0
   -1.3208    1.7481    1.1388 C   0  0  0  0  0  0  0  0  0  0  0  0
   -1.6114    0.4521    0.4361 C   0  0  0  0  0  0  0  0  0  0  0  0
   -2.9018    0.0153    0.3062 N   0  0  0  0  0  0  0  0  0  0  0  0
   -3.2141   -1.1161   -0.3404 C   0  0  0  0  0  0  0  0  0  0  0  0
   -4.5735   -1.5769   -0.4758 N   0  0  0  0  0  0  0  0  0  0  0  0
   -2.1816   -1.8125   -0.8680 N   0  0  0  0  0  0  0  0  0  0  0  0
   -0.8982   -1.4577   -0.7898 C   0  0  0  0  0  0  0  0  0  0  0  0
    0.1801   -2.1987   -1.3530 N   0  0  0  0  0  0  0  0  0  0  0  0
   -0.5962   -0.2715   -0.1052 C   0  0  0  0  0  0  0  0  0  0  0  0
    0.8068    0.0760    0.0300 C   0  0  0  0  0  0  0  0  0  0  0  0
    1.5939   -0.5863    1.0025 C   0  0  0  0  0  0  0  0  0  0  0  0
    2.9192   -0.2817    1.1732 C   0  0  0  0  0  0  0  0  0  0  0  0
    3.5408    0.6987    0.3943 C   0  0  0  0  0  0  0  0  0  0  0  0
    5.2319    1.0877    0.6217 Cl  0  0  0  0  0  0  0  0  0  0  0  0
    2.7488    1.3285   -0.5450 C   0  0  0  0  0  0  0  0  0  0  0  0
    1.4254    1.0317   -0.7281 C   0  0  0  0  0  0  0  0  0  0  0  0
  1  2  1  0
  2  3  1  0
  3  4  2  0
  4  5  1  0
  5  6  1  0
  5  7  2  0
  7  8  1  0
  8  9  1  0
  8 10  2  0
 10 11  1  0
 11 12  2  0
 12 13  1  0
 13 14  2  0
 14 15  1  0
 14 16  1  0
 16 17  2  0
 10  3  1  0
 17 11  1  0
M  END
>  <zinc_id>  (1) 
ZINC000000057464

>  <smiles>  (1) 
CCc1nc(N)nc(N)c1-c1ccc(Cl)cc1

$$$$
