
     RDKit          3D

 24 26  0  0  0  0  0  0  0  0999 V2000
    2.1637    2.9846    2.2878 C   0  0  0  0  0  0  0  0  0  0  0  0
    1.2620    2.1785    1.8013 O   0  0  0  0  0  0  0  0  0  0  0  0
    1.6498    1.1774    0.9280 C   0  0  0  0  0  0  0  0  0  0  0  0
    2.9538    0.9729    0.5310 C   0  0  0  0  0  0  0  0  0  0  0  0
    3.3056   -0.0356   -0.3419 C   0  0  0  0  0  0  0  0  0  0  0  0
    4.6340   -0.2123   -0.7212 O   0  0  0  0  0  0  0  0  0  0  0  0
    5.6513    0.6066   -0.2454 C   0  0  0  0  0  0  0  0  0  0  0  0
    2.2883   -0.8302   -0.7981 C   0  0  0  0  0  0  0  0  0  0  0  0
    2.6461   -2.1260   -1.9027 Cl  0  0  0  0  0  0  0  0  0  0  0  0
    0.9393   -0.6737   -0.4313 C   0  0  0  0  0  0  0  0  0  0  0  0
    0.6348    0.3466    0.4419 C   0  0  0  0  0  0  0  0  0  0  0  0
   -0.8010    0.3194    0.6622 C   0  0  0  0  0  0  0  0  0  0  0  0
   -1.3241    0.9733    1.5757 O   0  0  0  0  0  0  0  0  0  0  0  0
   -1.3286   -0.5451   -0.3282 C   0  0  1  0  0  0  0  0  0  0  0  0
   -0.2106   -1.3299   -0.7508 O   0  0  0  0  0  0  0  0  0  0  0  0
   -2.4592   -1.3952    0.0629 C   0  0  0  0  0  0  0  0  0  0  0  0
   -2.2747   -2.7497    0.4308 O   0  0  0  0  0  0  0  0  0  0  0  0
   -2.7510   -3.2169    1.6896 C   0  0  0  0  0  0  0  0  0  0  0  0
   -3.6394   -0.8404    0.0541 C   0  0  0  0  0  0  0  0  0  0  0  0
   -3.6965    0.5478   -0.3399 C   0  0  0  0  0  0  0  0  0  0  0  0
   -4.4172    1.4026    0.3049 O   0  0  0  0  0  0  0  0  0  0  0  0
   -2.9534    0.9856   -1.4512 C   0  0  0  0  0  0  0  0  0  0  0  0
   -1.6503    0.1043   -1.7652 C   0  0  1  0  0  0  0  0  0  0  0  0
   -0.6228    1.3554   -1.6946 C   0  0  0  0  0  0  0  0  0  0  0  0
  1  2  1  0
  2  3  1  0
  3  4  2  0
  4  5  1  0
  5  6  1  0
  6  7  1  0
  5  8  2  0
  8  9  1  0
  8 10  1  0
 10 11  2  0
 11 12  1  0
 12 13  2  0
 12 14  1  0
 14 15  1  6
 14 16  1  0
 16 17  1  0
 17 18  1  0
 16 19  2  0
 19 20  1  0
 20 21  2  0
 20 22  1  0
 22 23  1  0
 23 24  1  1
 11  3  1  0
 23 14  1  0
 15 10  1  0
M  END
>  <zinc_id>  (1) 
ZINC000000622123

>  <smiles>  (1) 
COC1=CC(=O)C[C@@H](C)[C@]12Oc1c(Cl)c(OC)cc(OC)c1C2=O

$$$$
