
     RDKit          2D

 47 50  0  0  0  0  0  0  0  0999 V2000
   -5.1715    4.9171    0.0000 C   0  0  0  0  0  0  0  0  0  0  0  0
   -5.7370    3.5278    0.0000 C   0  0  0  0  0  0  0  0  0  0  0  0
   -4.8165    2.3434    0.0000 O   0  0  0  0  0  0  0  0  0  0  0  0
   -5.3820    0.9540    0.0000 C   0  0  0  0  0  0  0  0  0  0  0  0
   -4.4616   -0.2304    0.0000 O   0  0  0  0  0  0  0  0  0  0  0  0
   -2.9757   -0.0254    0.0000 C   0  0  0  0  0  0  0  0  0  0  0  0
   -2.9849    1.4745    0.0000 C   0  0  0  0  0  0  0  0  0  0  0  0
   -2.6055    2.9258    0.0000 C   0  0  0  0  0  0  0  0  0  0  0  0
   -1.8635    4.2294    0.0000 C   0  0  0  0  0  0  0  0  0  0  0  0
   -0.8094    5.2966    0.0000 C   0  0  0  0  0  0  0  0  0  0  0  0
    0.4850    6.0545    0.0000 C   0  0  0  0  0  0  0  0  0  0  0  0
    1.9315    6.4516    0.0000 C   0  0  0  0  0  0  0  0  0  0  0  0
    3.4314    6.4609    0.0000 C   0  0  0  0  0  0  0  0  0  0  0  0
    4.8827    6.0815    0.0000 C   0  0  0  0  0  0  0  0  0  0  0  0
    6.1863    5.3395    0.0000 C   0  0  0  0  0  0  0  0  0  0  0  0
    7.2535    4.2854    0.0000 C   0  0  0  0  0  0  0  0  0  0  0  0
    8.4379    5.2058    0.0000 C   0  0  0  0  0  0  0  0  0  0  0  0
    8.0114    2.9910    0.0000 O   0  0  0  0  0  0  0  0  0  0  0  0
    8.4085    1.5445    0.0000 C   0  0  0  0  0  0  0  0  0  0  0  0
    9.8945    1.7494    0.0000 O   0  0  0  0  0  0  0  0  0  0  0  0
    8.4178    0.0445    0.0000 C   0  0  0  0  0  0  0  0  0  0  0  0
    8.0384   -1.4067    0.0000 C   0  0  0  0  0  0  0  0  0  0  0  0
    7.2964   -2.7103    0.0000 C   0  0  0  0  0  0  0  0  0  0  0  0
    7.6936   -4.1568    0.0000 O   0  0  0  0  0  0  0  0  0  0  0  0
    6.2423   -3.7775    0.0000 C   0  0  0  0  0  0  0  0  0  0  0  0
    4.9479   -4.5354    0.0000 C   0  0  0  0  0  0  0  0  0  0  0  0
    3.5014   -4.9326    0.0000 C   0  0  0  0  0  0  0  0  0  0  0  0
    3.7063   -6.4185    0.0000 O   0  0  0  0  0  0  0  0  0  0  0  0
    2.0014   -4.9418    0.0000 C   0  0  0  0  0  0  0  0  0  0  0  0
    0.5502   -4.5624    0.0000 C   0  0  0  0  0  0  0  0  0  0  0  0
    0.0799   -5.2061    0.0000 O   0  0  0  0  0  0  0  0  0  0  0  0
   -0.6555   -5.5309    0.0000 C   0  0  0  0  0  0  0  0  0  0  0  0
   -2.1439   -5.3442    0.0000 C   0  0  0  0  0  0  0  0  0  0  0  0
   -3.0497   -6.5398    0.0000 O   0  0  0  0  0  0  0  0  0  0  0  0
   -2.7264   -3.9619    0.0000 C   0  0  0  0  0  0  0  0  0  0  0  0
   -4.2147   -3.7753    0.0000 C   0  0  0  0  0  0  0  0  0  0  0  0
   -4.7973   -2.3930    0.0000 O   0  0  0  0  0  0  0  0  0  0  0  0
   -5.1205   -4.9709    0.0000 O   0  0  0  0  0  0  0  0  0  0  0  0
   -1.8206   -2.7663    0.0000 C   0  0  0  0  0  0  0  0  0  0  0  0
   -2.5785   -1.4719    0.0000 C   0  0  0  0  0  0  0  0  0  0  0  0
   -0.7534   -3.8204    0.0000 O   0  0  0  0  0  0  0  0  0  0  0  0
   -6.8680    0.7491    0.0000 C   0  0  0  0  0  0  0  0  0  0  0  0
   -7.4335   -0.6402    0.0000 O   0  0  0  0  0  0  0  0  0  0  0  0
   -7.7884    1.9335    0.0000 C   0  0  0  0  0  0  0  0  0  0  0  0
   -9.2743    1.7286    0.0000 N   0  0  0  0  0  0  0  0  0  0  0  0
   -7.2229    3.3228    0.0000 C   0  0  0  0  0  0  0  0  0  0  0  0
   -8.1433    4.5072    0.0000 O   0  0  0  0  0  0  0  0  0  0  0  0
  2  1  1  1
  2  3  1  0
  3  4  1  0
  4  5  1  1
  6  5  1  1
  6  7  1  0
  7  8  2  0
  8  9  1  0
  9 10  2  0
 10 11  1  0
 11 12  2  0
 12 13  1  0
 13 14  2  0
 14 15  1  0
 15 16  1  0
 16 17  1  1
 16 18  1  0
 18 19  1  0
 19 20  2  0
 19 21  1  0
 21 22  2  0
 23 22  1  0
 23 24  1  1
 24 25  1  0
 25 26  1  6
 26 27  1  0
 27 28  1  6
 27 29  1  0
 29 30  1  0
 30 31  1  1
 30 32  1  0
 32 33  1  0
 33 34  1  6
 33 35  1  0
 35 36  1  1
 36 37  2  0
 36 38  1  0
 35 39  1  0
 39 40  1  6
 39 41  1  0
  4 42  1  0
 42 43  1  1
 42 44  1  0
 44 45  1  1
 44 46  1  0
 46 47  1  6
 46  2  1  0
 40  6  1  0
 25 23  1  0
 41 30  1  0
M  END
>  <zinc_id>  (1) 
ZINC000008220909

>  <smiles>  (1) 
C[C@@H]1C/C=C/C=C/C=C/C=C/[C@H](O[C@@H]2O[C@H](C)[C@@H](O)[C@H](N)[C@@H]2O)C[C@@H]2O[C@](O)(C[C@@H](O)C[C@H]3O[C@@H]3/C=C/C(=O)O1)C[C@H](O)[C@H]2C(=O)O

$$$$
