
     RDKit          3D

  4  3  0  0  0  0  0  0  0  0999 V2000
   -0.0792    1.3111    0.0289 N   0  0  0  0  0  0  0  0  0  0  0  0
    0.0046    0.0280    0.0006 C   0  0  0  0  0  0  0  0  0  0  0  0
   -1.1783   -0.7375   -0.0189 N   0  0  0  0  0  0  0  0  0  0  0  0
    1.2529   -0.6015   -0.0106 N   0  0  0  0  0  0  0  0  0  0  0  0
  1  2  2  0
  2  3  1  0
  2  4  1  0
M  END
>  <zinc_id>  (1) 
ZINC000008101126

>  <smiles>  (1) 
N=C(N)N

$$$$
