
     RDKit          3D

 21 21  0  0  0  0  0  0  0  0999 V2000
   -4.3971   -0.6614   -2.4994 C   0  0  0  0  0  0  0  0  0  0  0  0
   -4.3514   -0.0131   -1.2164 N   0  0  0  0  0  0  0  0  0  0  0  0
   -3.3386   -0.3956   -0.3154 C   0  0  0  0  0  0  0  0  0  0  0  0
   -3.6531   -0.7590    0.9032 C   0  0  0  0  0  0  0  0  0  0  0  0
   -5.0402   -0.7600    1.3004 N   0  0  0  0  0  0  0  0  0  0  0  0
   -5.8840   -0.9924    0.4120 O   0  0  0  0  0  0  0  0  0  0  0  0
   -5.4291   -0.5162    2.5975 O   0  0  0  0  0  0  0  0  0  0  0  0
   -1.9928   -0.3866   -0.7225 N   0  0  0  0  0  0  0  0  0  0  0  0
   -1.5391   -0.6942   -2.0431 C   0  0  0  0  0  0  0  0  0  0  0  0
   -0.0637   -0.6161   -2.2440 C   0  0  0  0  0  0  0  0  0  0  0  0
    0.5430    1.0297   -1.8796 S   0  0  0  0  0  0  0  0  0  0  0  0
    0.4686    1.3496   -0.1015 C   0  0  0  0  0  0  0  0  0  0  0  0
    1.5424    0.4710    0.5230 C   0  0  0  0  0  0  0  0  0  0  0  0
    1.2961   -0.8013    0.9523 C   0  0  0  0  0  0  0  0  0  0  0  0
    2.8212   -1.2856    1.5422 S   0  0  0  0  0  0  0  0  0  0  0  0
    3.6803    0.1470    1.2124 C   0  0  0  0  0  0  0  0  0  0  0  0
    5.1355    0.4797    1.4665 C   0  0  0  0  0  0  0  0  0  0  0  0
    5.9367    0.1800    0.2962 N   0  0  0  0  0  0  0  0  0  0  0  0
    5.8380   -1.2149   -0.0346 C   0  0  0  0  0  0  0  0  0  0  0  0
    5.6665    1.0633   -0.8177 C   0  0  0  0  0  0  0  0  0  0  0  0
    2.7609    0.9240    0.6683 N   0  0  0  0  0  0  0  0  0  0  0  0
  1  2  1  0
  2  3  1  0
  3  4  2  0
  4  5  1  0
  5  6  2  0
  5  7  1  0
  3  8  1  0
  8  9  1  0
  9 10  1  0
 10 11  1  0
 11 12  1  0
 12 13  1  0
 13 14  2  0
 14 15  1  0
 15 16  1  0
 16 17  1  0
 17 18  1  0
 18 19  1  0
 18 20  1  0
 16 21  2  0
 21 13  1  0
M  CHG  2   5   1   7  -1
M  END
>  <zinc_id>  (1) 
ZINC000001530736

>  <smiles>  (1) 
CN/C(=C\[N+](=O)[O-])NCCSCc1csc(CN(C)C)n1

$$$$
