
     RDKit          3D

 21 23  0  0  0  0  0  0  0  0999 V2000
   -2.6535    3.2109   -1.3667 O   0  0  0  0  0  0  0  0  0  0  0  0
   -2.0936    2.1328   -1.1268 C   0  0  0  0  0  0  0  0  0  0  0  0
   -2.5971    1.1992   -0.1741 N   0  0  0  0  0  0  0  0  0  0  0  0
   -2.0122   -0.1151   -0.0824 C   0  0  0  0  0  0  0  0  0  0  0  0
   -2.8706   -1.1844   -0.0400 C   0  0  0  0  0  0  0  0  0  0  0  0
   -2.3866   -2.4956   -0.0501 C   0  0  0  0  0  0  0  0  0  0  0  0
   -1.0402   -2.7654   -0.1016 C   0  0  0  0  0  0  0  0  0  0  0  0
   -0.4458   -4.4384   -0.1171 Cl  0  0  0  0  0  0  0  0  0  0  0  0
   -0.1797   -1.6954   -0.1405 C   0  0  0  0  0  0  0  0  0  0  0  0
   -0.6513   -0.3529   -0.1306 C   0  0  0  0  0  0  0  0  0  0  0  0
    0.4175    0.6061   -0.2282 C   0  0  0  0  0  0  0  0  0  0  0  0
    1.6588    0.4166    0.4555 C   0  0  0  0  0  0  0  0  0  0  0  0
    2.7734    1.1174   -0.0514 C   0  0  0  0  0  0  0  0  0  0  0  0
    3.9938    1.1635    0.5432 C   0  0  0  0  0  0  0  0  0  0  0  0
    4.1566    0.4697    1.7384 C   0  0  0  0  0  0  0  0  0  0  0  0
    3.0980   -0.2153    2.2583 C   0  0  0  0  0  0  0  0  0  0  0  0
    1.8559   -0.2320    1.6120 C   0  0  0  0  0  0  0  0  0  0  0  0
    0.5538   -0.9555    2.5908 Cl  0  0  0  0  0  0  0  0  0  0  0  0
    0.3147    1.5719   -1.0549 N   0  0  0  0  0  0  0  0  0  0  0  0
   -0.7670    1.9790   -2.0327 C   0  0  1  0  0  0  0  0  0  0  0  0
   -1.1249    0.5828   -2.5011 O   0  0  0  0  0  0  0  0  0  0  0  0
  1  2  2  0
  2  3  1  0
  3  4  1  0
  4  5  2  0
  5  6  1  0
  6  7  2  0
  7  8  1  0
  7  9  1  0
  9 10  2  0
 10 11  1  0
 11 12  1  0
 12 13  2  0
 13 14  1  0
 14 15  2  0
 15 16  1  0
 16 17  2  0
 17 18  1  0
 11 19  2  0
 19 20  1  0
 20 21  1  6
 20  2  1  0
 10  4  1  0
 17 12  1  0
M  END
>  <zinc_id>  (1) 
ZINC000000000431

>  <smiles>  (1) 
O=C1Nc2ccc(Cl)cc2C(c2ccccc2Cl)=N[C@H]1O

$$$$
