
     RDKit          3D

 43 47  0  0  0  0  0  0  0  0999 V2000
   -7.4178   -2.9476    1.9792 C   0  0  0  0  0  0  0  0  0  0  0  0
   -6.9980   -1.8384    1.8611 C   0  0  0  0  0  0  0  0  0  0  0  0
   -6.0508   -1.6948    0.7901 O   0  0  0  0  0  0  0  0  0  0  0  0
   -5.5413   -0.4333    0.6173 N   0  0  0  0  0  0  0  0  0  0  0  0
   -4.4076   -0.2203    0.0242 C   0  0  0  0  0  0  0  0  0  0  0  0
   -3.6663   -1.3366   -0.4647 C   0  0  0  0  0  0  0  0  0  0  0  0
   -4.1918   -2.4779   -0.3110 O   0  0  0  0  0  0  0  0  0  0  0  0
   -2.4189   -1.3654   -1.1045 N   0  0  0  0  0  0  0  0  0  0  0  0
   -1.8438   -2.7360   -1.5609 C   0  0  2  0  0  0  0  0  0  0  0  0
   -1.3533   -3.4191   -0.2542 C   0  0  0  0  0  0  0  0  0  0  0  0
   -1.9694   -3.9043    0.6737 O   0  0  0  0  0  0  0  0  0  0  0  0
   -0.0202   -3.2349   -0.6116 N   0  0  0  0  0  0  0  0  0  0  0  0
    1.3663   -3.4750   -0.3563 C   0  0  0  0  0  0  0  0  0  0  0  0
    1.7336   -4.8862   -0.1839 C   0  0  0  0  0  0  0  0  0  0  0  0
    1.0108   -5.8539   -0.2591 O   0  0  0  0  0  0  0  0  0  0  0  0
    3.1005   -5.1129    0.1061 O   0  0  0  0  0  0  0  0  0  0  0  0
    2.2620   -2.5150   -0.2423 C   0  0  0  0  0  0  0  0  0  0  0  0
    3.9678   -2.9049    0.0693 S   0  0  0  0  0  0  0  0  0  0  0  0
    4.8667   -1.3948    0.5337 C   0  0  0  0  0  0  0  0  0  0  0  0
    5.4676   -0.4957   -0.2035 N   0  0  0  0  0  0  0  0  0  0  0  0
    6.0554    0.5237    0.3391 C   0  0  0  0  0  0  0  0  0  0  0  0
    6.7303    1.5800   -0.4515 C   0  0  0  0  0  0  0  0  0  0  0  0
    7.3164    2.6406    0.1625 C   0  0  0  0  0  0  0  0  0  0  0  0
    7.9328    3.6320   -0.5791 C   0  0  0  0  0  0  0  0  0  0  0  0
    7.9493    3.5407   -1.9119 N   0  0  0  0  0  0  0  0  0  0  0  0
    8.6029    4.6010   -2.6734 C   0  0  0  0  0  0  0  0  0  0  0  0
    7.3835    2.5111   -2.5585 C   0  0  0  0  0  0  0  0  0  0  0  0
    6.7630    1.5126   -1.8150 C   0  0  0  0  0  0  0  0  0  0  0  0
    6.0128    0.6037    1.7150 C   0  0  0  0  0  0  0  0  0  0  0  0
    5.1294   -0.7900    2.1349 S   0  0  0  0  0  0  0  0  0  0  0  0
    1.8628   -1.1067   -0.3151 C   0  0  0  0  0  0  0  0  0  0  0  0
    0.1684   -0.8105   -0.8619 S   0  0  0  0  0  0  0  0  0  0  0  0
   -0.2575   -2.3539   -1.8507 C   0  0  2  0  0  0  0  0  0  0  0  0
   -3.9783    1.2037   -0.1303 C   0  0  0  0  0  0  0  0  0  0  0  0
   -2.7971    1.4360   -0.7336 N   0  0  0  0  0  0  0  0  0  0  0  0
   -2.6668    3.1102   -0.7353 S   0  0  0  0  0  0  0  0  0  0  0  0
   -4.1630    3.4576    0.0548 C   0  0  0  0  0  0  0  0  0  0  0  0
   -4.7062    4.7530    0.3811 N   0  0  0  0  0  0  0  0  0  0  0  0
   -6.2646    4.9368    1.1331 P   0  0  0  0  0  0  0  0  0  0  0  0
   -6.0309    5.1922    2.6188 O   0  0  0  0  0  0  0  0  0  0  0  0
   -7.0987    6.2480    0.4595 O   0  0  0  0  0  0  0  0  0  0  0  0
   -7.2023    3.5685    0.9974 O   0  0  0  0  0  0  0  0  0  0  0  0
   -4.6377    2.2564    0.2533 N   0  0  0  0  0  0  0  0  0  0  0  0
  1  2  1  0
  2  3  1  0
  3  4  1  0
  4  5  2  0
  5  6  1  0
  6  7  2  0
  6  8  1  0
  9  8  1  1
  9 10  1  0
 10 11  2  0
 10 12  1  0
 12 13  1  0
 13 14  1  0
 14 15  2  0
 14 16  1  0
 13 17  2  0
 17 18  1  0
 18 19  1  0
 19 20  2  0
 20 21  1  0
 21 22  1  0
 22 23  2  0
 23 24  1  0
 24 25  2  0
 25 26  1  0
 25 27  1  0
 27 28  2  0
 21 29  2  0
 29 30  1  0
 17 31  1  0
 31 32  1  0
 33 32  1  1
  5 34  1  0
 34 35  2  0
 35 36  1  0
 36 37  1  0
 37 38  1  0
 38 39  1  0
 39 40  2  0
 39 41  1  0
 39 42  1  0
 37 43  2  0
 33  9  1  0
 43 34  1  0
 33 12  1  0
 30 19  1  0
 28 22  1  0
M  CHG  1  25   1
M  END
>  <zinc_id>  (1) 
ZINC000003989268

>  <smiles>  (1) 
CCO/N=C(\C(=O)N[C@@H]1C(=O)N2C(C(=O)O)=C(Sc3nc(-c4cc[n+](C)cc4)cs3)CS[C@H]12)c1nsc(NP(=O)(O)O)n1

$$$$
