
     RDKit          3D

 10 10  0  0  0  0  0  0  0  0999 V2000
    0.7828    0.3999   -1.6941 C   0  0  0  0  0  0  0  0  0  0  0  0
   -0.3291    0.1410   -0.7728 N   0  0  0  0  0  0  0  0  0  0  0  0
   -1.5786    0.1672   -1.2603 C   0  0  0  0  0  0  0  0  0  0  0  0
   -2.6403   -0.0697   -0.4298 C   0  0  0  0  0  0  0  0  0  0  0  0
   -2.3895   -0.3303    0.8945 C   0  0  0  0  0  0  0  0  0  0  0  0
   -1.0924   -0.3465    1.3478 C   0  0  0  0  0  0  0  0  0  0  0  0
   -0.0185   -0.1074    0.5107 C   0  0  0  0  0  0  0  0  0  0  0  0
    1.3642   -0.1179    0.9613 C   0  0  0  0  0  0  0  0  0  0  0  0
    2.2845    0.1191    0.0894 N   0  0  0  0  0  0  0  0  0  0  0  0
    3.6169    0.1445    0.3533 O   0  0  0  0  0  0  0  0  0  0  0  0
  1  2  1  0
  2  3  2  0
  3  4  1  0
  4  5  2  0
  5  6  1  0
  6  7  2  0
  7  8  1  0
  8  9  2  0
  9 10  1  0
  7  2  1  0
M  CHG  1   2   1
M  END
>  <zinc_id>  (1) 
ZINC000004577910

>  <smiles>  (1) 
C[n+]1ccccc1/C=N/O

$$$$
