
     RDKit          3D

 22 24  0  0  0  0  0  0  0  0999 V2000
    0.8145   -1.3423   -1.7054 C   0  0  0  0  0  0  0  0  0  0  0  0
    1.9871   -0.4670   -0.8958 C   0  0  2  0  0  0  0  0  0  0  0  0
    2.9243   -1.7951   -0.6694 C   0  0  0  0  0  0  0  0  0  0  0  0
    4.0799   -1.3403    0.0328 N   0  0  0  0  0  0  0  0  0  0  0  0
    4.8689   -0.4990   -0.8006 C   0  0  0  0  0  0  0  0  0  0  0  0
    3.7533   -0.7987    1.3144 C   0  0  0  0  0  0  0  0  0  0  0  0
    1.1879   -0.6879    0.5484 C   0  0  0  0  0  0  0  0  0  0  0  0
   -0.1074   -0.0794    0.3579 N   0  0  0  0  0  0  0  0  0  0  0  0
   -1.2644   -0.9032    0.5725 C   0  0  0  0  0  0  0  0  0  0  0  0
   -0.9280   -2.1495    1.0228 C   0  0  0  0  0  0  0  0  0  0  0  0
   -1.8688   -3.0869    1.2857 C   0  0  0  0  0  0  0  0  0  0  0  0
   -3.1906   -2.8006    1.1034 C   0  0  0  0  0  0  0  0  0  0  0  0
   -3.5552   -1.5438    0.6479 C   0  0  0  0  0  0  0  0  0  0  0  0
   -2.5946   -0.5983    0.3834 C   0  0  0  0  0  0  0  0  0  0  0  0
   -3.2126    0.6563   -0.0939 C   0  0  0  0  0  0  0  0  0  0  0  0
   -2.6594    1.9019    0.5024 C   0  0  0  0  0  0  0  0  0  0  0  0
   -1.2700    2.1547    0.0352 C   0  0  0  0  0  0  0  0  0  0  0  0
   -1.1371    3.4620   -0.3832 C   0  0  0  0  0  0  0  0  0  0  0  0
    0.1130    3.8918   -0.8572 C   0  0  0  0  0  0  0  0  0  0  0  0
    1.1850    3.0215   -0.9029 C   0  0  0  0  0  0  0  0  0  0  0  0
    1.0378    1.7158   -0.4803 C   0  0  0  0  0  0  0  0  0  0  0  0
   -0.1636    1.2879   -0.0192 C   0  0  0  0  0  0  0  0  0  0  0  0
  2  1  1  6
  2  3  1  0
  3  4  1  0
  4  5  1  0
  4  6  1  0
  2  7  1  0
  7  8  1  0
  8  9  1  0
  9 10  2  0
 10 11  1  0
 11 12  2  0
 12 13  1  0
 13 14  2  0
 14 15  1  0
 15 16  1  0
 16 17  1  0
 17 18  2  0
 18 19  1  0
 19 20  2  0
 20 21  1  0
 21 22  2  0
 22  8  1  0
 14  9  1  0
 22 17  1  0
M  END
>  <zinc_id>  (1) 
ZINC000000968275

>  <smiles>  (1) 
C[C@H](CN(C)C)CN1c2ccccc2CCc2ccccc21

$$$$
