
     RDKit          3D

 25 27  0  0  0  0  0  0  0  0999 V2000
    1.4008    0.1008    2.8412 O   0  0  0  0  0  0  0  0  0  0  0  0
    0.7029    0.0338    1.7702 C   0  0  0  0  0  0  0  0  0  0  0  0
   -0.6830    0.2838    1.6334 N   0  0  0  0  0  0  0  0  0  0  0  0
   -1.0440    0.0109    0.2636 C   0  0  0  0  0  0  0  0  0  0  0  0
   -1.6484    1.2524   -0.2763 C   0  0  0  0  0  0  0  0  0  0  0  0
   -1.0656    1.8469   -1.3631 C   0  0  0  0  0  0  0  0  0  0  0  0
   -1.5721    3.0034   -1.9167 C   0  0  0  0  0  0  0  0  0  0  0  0
   -2.6913    3.5897   -1.3760 C   0  0  0  0  0  0  0  0  0  0  0  0
   -3.2974    3.0118   -0.2819 C   0  0  0  0  0  0  0  0  0  0  0  0
   -2.7625    1.8324    0.2642 C   0  0  0  0  0  0  0  0  0  0  0  0
   -1.9696   -1.1353    0.1475 C   0  0  0  0  0  0  0  0  0  0  0  0
   -3.1725   -1.0740    0.7857 C   0  0  0  0  0  0  0  0  0  0  0  0
   -4.0544   -2.1403    0.6895 C   0  0  0  0  0  0  0  0  0  0  0  0
   -3.6542   -3.2320   -0.0664 C   0  0  0  0  0  0  0  0  0  0  0  0
   -2.4452   -3.3039   -0.7129 C   0  0  0  0  0  0  0  0  0  0  0  0
   -1.5942   -2.2242   -0.5944 C   0  0  0  0  0  0  0  0  0  0  0  0
    0.2409   -0.2974   -0.4382 C   0  0  0  0  0  0  0  0  0  0  0  0
    0.3267   -0.4945   -1.6777 O   0  0  0  0  0  0  0  0  0  0  0  0
    1.2819   -0.3198    0.5233 N   0  0  0  0  0  0  0  0  0  0  0  0
    2.6966   -0.6452    0.2830 C   0  0  0  0  0  0  0  0  0  0  0  0
    3.4178    0.4988   -0.0397 O   0  0  0  0  0  0  0  0  0  0  0  0
    5.0206    0.0151   -0.2933 P   0  0  0  0  0  0  0  0  0  0  0  0
    5.9951    0.9993    0.2941 O   0  0  0  0  0  0  0  0  0  0  0  0
    5.3484   -1.4885    0.3719 O   0  0  0  0  0  0  0  0  0  0  0  0
    5.2228   -0.1239   -1.9818 O   0  0  0  0  0  0  0  0  0  0  0  0
  1  2  2  0
  2  3  1  0
  3  4  1  0
  4  5  1  0
  5  6  2  0
  6  7  1  0
  7  8  2  0
  8  9  1  0
  9 10  2  0
  4 11  1  0
 11 12  2  0
 12 13  1  0
 13 14  2  0
 14 15  1  0
 15 16  2  0
  4 17  1  0
 17 18  2  0
 17 19  1  0
 19 20  1  0
 20 21  1  0
 21 22  1  0
 22 23  2  0
 22 24  1  0
 22 25  1  0
 19  2  1  0
 10  5  1  0
 16 11  1  0
M  END
>  <zinc_id>  (1) 
ZINC000001530922

>  <smiles>  (1) 
O=C1NC(c2ccccc2)(c2ccccc2)C(=O)N1COP(=O)(O)O

$$$$
