
     RDKit          3D

 41 46  0  0  0  0  0  0  0  0999 V2000
    5.4271   -1.6036   -3.5006 C   0  0  0  0  0  0  0  0  0  0  0  0
    4.8390   -1.7492   -2.2660 C   0  0  0  0  0  0  0  0  0  0  0  0
    4.5602   -3.0140   -1.8693 O   0  0  0  0  0  0  0  0  0  0  0  0
    4.4649   -0.9062   -1.2441 O   0  0  0  0  0  0  0  0  0  0  0  0
    3.9207   -1.3199    0.0877 C   0  0  1  0  0  0  0  0  0  0  0  0
    4.0128    0.2585    0.7807 C   0  0  1  0  0  0  0  0  0  0  0  0
    5.3795    0.7348    0.3189 N   0  0  0  0  0  0  0  0  0  0  0  0
    5.4674    1.3608   -0.8813 C   0  0  0  0  0  0  0  0  0  0  0  0
    5.4355    1.9385    1.2361 C   0  0  0  0  0  0  0  0  0  0  0  0
    6.5765    1.9265    2.1312 C   0  0  0  0  0  0  0  0  0  0  0  0
    6.3295    0.8103    3.1516 C   0  0  0  0  0  0  0  0  0  0  0  0
    5.9593   -0.3931    2.2810 C   0  0  0  0  0  0  0  0  0  0  0  0
    6.3282   -0.1551    0.8273 C   0  0  0  0  0  0  0  0  0  0  0  0
    3.1329    0.9086   -0.5006 C   0  0  0  0  0  0  0  0  0  0  0  0
    2.0020    0.1521    0.4570 C   0  0  1  0  0  0  0  0  0  0  0  0
    0.6930    0.4439   -0.5710 C   0  0  2  0  0  0  0  0  0  0  0  0
    0.4505    1.9440   -0.0832 C   0  0  0  0  0  0  0  0  0  0  0  0
   -0.7696    2.1212   -0.9724 C   0  0  0  0  0  0  0  0  0  0  0  0
   -1.8963    1.5547    0.0584 C   0  0  1  0  0  0  0  0  0  0  0  0
   -3.0805    1.7229   -0.9943 C   0  0  0  0  0  0  0  0  0  0  0  0
   -3.8676    0.2621   -1.0751 C   0  0  2  0  0  0  0  0  0  0  0  0
   -5.1862    0.9743   -1.3170 O   0  0  0  0  0  0  0  0  0  0  0  0
   -5.7770    0.5849   -2.5087 C   0  0  0  0  0  0  0  0  0  0  0  0
   -7.1868    1.0092   -2.9172 C   0  0  0  0  0  0  0  0  0  0  0  0
   -5.2229   -0.1758   -3.3448 O   0  0  0  0  0  0  0  0  0  0  0  0
   -3.9395    0.3049    0.6696 C   0  0  1  0  0  0  0  0  0  0  0  0
   -4.9477   -0.7349    0.9846 N   0  0  0  0  0  0  0  0  0  0  0  0
   -4.7923   -1.9347    0.2506 C   0  0  0  0  0  0  0  0  0  0  0  0
   -4.5087   -1.1043    2.3814 C   0  0  0  0  0  0  0  0  0  0  0  0
   -4.6860    0.0681    3.2868 C   0  0  0  0  0  0  0  0  0  0  0  0
   -6.1690    0.2048    3.5622 C   0  0  0  0  0  0  0  0  0  0  0  0
   -6.9500   -0.0174    2.3140 C   0  0  0  0  0  0  0  0  0  0  0  0
   -6.2346   -0.1410    1.0462 C   0  0  0  0  0  0  0  0  0  0  0  0
   -2.6302   -0.6336    0.7096 C   0  0  0  0  0  0  0  0  0  0  0  0
   -1.6149   -0.0318   -0.1773 C   0  0  1  0  0  0  0  0  0  0  0  0
   -1.4511   -0.4213   -1.5173 C   0  0  0  0  0  0  0  0  0  0  0  0
   -0.2254   -0.2255    0.6559 C   0  0  1  0  0  0  0  0  0  0  0  0
    0.0649   -1.7092    0.1033 C   0  0  0  0  0  0  0  0  0  0  0  0
    1.5229   -2.0869    0.4563 C   0  0  0  0  0  0  0  0  0  0  0  0
    2.3765   -1.1938   -0.2852 C   0  0  2  0  0  0  0  0  0  0  0  0
    2.1927   -1.1074   -1.7251 C   0  0  0  0  0  0  0  0  0  0  0  0
  1  2  1  0
  2  3  2  0
  2  4  1  0
  5  4  1  6
  5  6  1  0
  6  7  1  6
  7  8  1  0
  7  9  1  0
  9 10  1  0
 10 11  1  0
 11 12  1  0
 12 13  1  0
  6 14  1  0
 15 14  1  6
 15 16  1  0
 16 17  1  1
 17 18  1  0
 19 18  1  6
 19 20  1  0
 20 21  1  0
 21 22  1  6
 22 23  1  0
 23 24  1  0
 23 25  2  0
 21 26  1  0
 26 27  1  6
 27 28  1  0
 27 29  1  0
 29 30  1  0
 30 31  1  0
 31 32  1  0
 32 33  1  0
 26 34  1  0
 34 35  1  0
 35 36  1  6
 35 37  1  0
 37 38  1  6
 38 39  1  0
 39 40  1  0
 40 41  1  6
 40  5  1  0
 13  7  1  0
 40 15  1  0
 37 16  1  0
 35 19  1  0
 33 27  1  0
M  CHG  2   7   1  27   1
M  END
>  <zinc_id>  (1) 
ZINC000004097383

>  <smiles>  (1) 
CC(=O)O[C@H]1C[C@@H]2CC[C@@H]3[C@H](CC[C@@]4(C)[C@H]3C[C@H]([N+]3(C)CCCCC3)[C@@H]4OC(C)=O)[C@@]2(C)C[C@@H]1[N+]1(C)CCCCC1

$$$$
