
     RDKit          3D

 22 26  0  0  0  0  0  0  0  0999 V2000
   -3.7220   -1.0731    0.3926 C   0  0  0  0  0  0  0  0  0  0  0  0
   -2.8926   -1.0440    0.4323 N   0  0  0  0  0  0  0  0  0  0  0  0
   -2.0134   -1.3393    1.4671 C   0  0  0  0  0  0  0  0  0  0  0  0
   -0.9711   -0.3980    1.9037 C   0  0  0  0  0  0  0  0  0  0  0  0
   -0.2873    0.2420    0.7004 C   0  0  1  0  0  0  0  0  0  0  0  0
    0.6803   -0.5453    0.0479 C   0  0  0  0  0  0  0  0  0  0  0  0
    1.9079   -0.1311    0.3247 C   0  0  0  0  0  0  0  0  0  0  0  0
    2.9269   -0.8594   -0.3231 C   0  0  0  0  0  0  0  0  0  0  0  0
    4.2513   -0.4973   -0.0950 O   0  0  0  0  0  0  0  0  0  0  0  0
    2.5938   -1.9180   -1.1715 C   0  0  0  0  0  0  0  0  0  0  0  0
    1.2359   -2.2653   -1.3852 C   0  0  0  0  0  0  0  0  0  0  0  0
    0.2464   -1.5458   -0.7459 C   0  0  0  0  0  0  0  0  0  0  0  0
   -1.1339   -1.8392   -0.8744 C   0  0  0  0  0  0  0  0  0  0  0  0
   -2.1183   -0.5811   -0.8574 C   0  0  2  0  0  0  0  0  0  0  0  0
   -1.3411    0.6232   -0.1522 C   0  0  1  0  0  0  0  0  0  0  0  0
   -2.3243    1.3749    0.5503 O   0  0  0  0  0  0  0  0  0  0  0  0
   -1.0798    1.5220   -1.3615 C   0  0  0  0  0  0  0  0  0  0  0  0
   -0.6624    2.8296   -0.6580 C   0  0  0  0  0  0  0  0  0  0  0  0
    0.6235    2.3768   -0.0534 C   0  0  0  0  0  0  0  0  0  0  0  0
    1.6126    2.6807   -0.5831 O   0  0  0  0  0  0  0  0  0  0  0  0
    0.5310    1.5040    1.2849 C   0  0  2  0  0  0  0  0  0  0  0  0
    1.9366    0.8838    1.1568 O   0  0  0  0  0  0  0  0  0  0  0  0
  1  2  1  0
  2  3  1  0
  3  4  1  0
  5  4  1  1
  5  6  1  0
  6  7  2  0
  7  8  1  0
  8  9  1  0
  8 10  2  0
 10 11  1  0
 11 12  2  0
 12 13  1  0
 14 13  1  1
 14 15  1  0
 15 16  1  1
 15 17  1  0
 17 18  1  0
 18 19  1  0
 19 20  2  0
 19 21  1  0
 21 22  1  6
 14  2  1  0
 15  5  1  0
 21  5  1  0
 12  6  1  0
 22  7  1  0
M  END
>  <zinc_id>  (1) 
ZINC000003875483

>  <smiles>  (1) 
CN1CC[C@]23c4c5ccc(O)c4O[C@H]2C(=O)CC[C@@]3(O)[C@H]1C5

$$$$
