
     RDKit          3D

 28 29  0  0  0  0  0  0  0  0999 V2000
   -5.1656    2.2067   -0.8843 C   0  0  0  0  0  0  0  0  0  0  0  0
   -3.9145    2.1943   -0.2914 O   0  0  0  0  0  0  0  0  0  0  0  0
   -2.8764    1.3627   -0.6709 C   0  0  0  0  0  0  0  0  0  0  0  0
   -3.0728    0.5839   -1.5926 O   0  0  0  0  0  0  0  0  0  0  0  0
   -1.5987    1.4748    0.0671 C   0  0  0  0  0  0  0  0  0  0  0  0
   -1.4448    2.2972    1.0132 C   0  0  0  0  0  0  0  0  0  0  0  0
   -2.5663    3.1844    1.4159 C   0  0  0  0  0  0  0  0  0  0  0  0
   -0.2305    2.3720    1.6260 N   0  0  0  0  0  0  0  0  0  0  0  0
    0.8883    1.6279    1.3216 C   0  0  0  0  0  0  0  0  0  0  0  0
    2.1875    1.8243    2.0925 C   0  0  0  0  0  0  0  0  0  0  0  0
    0.7806    0.7725    0.3686 C   0  0  0  0  0  0  0  0  0  0  0  0
    1.9970    0.0189    0.0798 C   0  0  0  0  0  0  0  0  0  0  0  0
    2.0961   -0.8402   -0.8163 O   0  0  0  0  0  0  0  0  0  0  0  0
    3.1769    0.2072    0.8054 O   0  0  0  0  0  0  0  0  0  0  0  0
    4.3616   -0.4915    0.5622 C   0  0  0  0  0  0  0  0  0  0  0  0
    4.9191   -0.3048   -0.8164 C   0  0  0  0  0  0  0  0  0  0  0  0
    6.1930   -1.1187   -0.9232 C   0  0  0  0  0  0  0  0  0  0  0  0
    5.3519    1.1635   -0.9204 C   0  0  0  0  0  0  0  0  0  0  0  0
   -0.5050    0.4393   -0.4400 C   0  0  1  0  0  0  0  0  0  0  0  0
   -0.9951   -0.8141    0.3940 C   0  0  0  0  0  0  0  0  0  0  0  0
   -1.3362   -0.7851    1.6733 C   0  0  0  0  0  0  0  0  0  0  0  0
   -1.7845   -1.8722    2.3763 C   0  0  0  0  0  0  0  0  0  0  0  0
   -1.8886   -3.0650    1.7223 C   0  0  0  0  0  0  0  0  0  0  0  0
   -1.5491   -3.1467    0.4054 C   0  0  0  0  0  0  0  0  0  0  0  0
   -1.0850   -1.9840   -0.2889 C   0  0  0  0  0  0  0  0  0  0  0  0
   -0.7802   -2.2586   -1.6236 N   0  0  0  0  0  0  0  0  0  0  0  0
   -0.8518   -1.5098   -2.6041 O   0  0  0  0  0  0  0  0  0  0  0  0
   -0.3070   -3.5387   -1.9348 O   0  0  0  0  0  0  0  0  0  0  0  0
  1  2  1  0
  2  3  1  0
  3  4  2  0
  3  5  1  0
  5  6  2  0
  6  7  1  0
  6  8  1  0
  8  9  1  0
  9 10  1  0
  9 11  2  0
 11 12  1  0
 12 13  2  0
 12 14  1  0
 14 15  1  0
 15 16  1  0
 16 17  1  0
 16 18  1  0
 11 19  1  0
 19 20  1  1
 20 21  2  0
 21 22  1  0
 22 23  2  0
 23 24  1  0
 24 25  2  0
 25 26  1  0
 26 27  2  0
 26 28  1  0
 19  5  1  0
 25 20  1  0
M  CHG  2  26   1  28  -1
M  END
>  <zinc_id>  (1) 
ZINC000000591993

>  <smiles>  (1) 
COC(=O)C1=C(C)NC(C)=C(C(=O)OCC(C)C)[C@H]1c1ccccc1[N+](=O)[O-]

$$$$
