
     RDKit          3D

 22 25  0  0  0  0  0  0  0  0999 V2000
    3.7946   -1.3668    1.7460 C   0  0  0  0  0  0  0  0  0  0  0  0
    3.9265   -0.6261    0.4950 N   0  0  0  0  0  0  0  0  0  0  0  0
    3.2336   -1.4026   -0.5170 C   0  0  0  0  0  0  0  0  0  0  0  0
    1.7767   -1.4926   -0.0421 C   0  0  0  0  0  0  0  0  0  0  0  0
    1.2385   -0.1188   -0.1302 C   0  0  0  0  0  0  0  0  0  0  0  0
   -0.0570    0.0524   -0.0912 C   0  0  0  0  0  0  0  0  0  0  0  0
   -0.5157    1.4521   -0.1846 C   0  0  0  0  0  0  0  0  0  0  0  0
    0.4913    2.2938    0.1755 C   0  0  0  0  0  0  0  0  0  0  0  0
    0.2202    3.6670    0.1419 C   0  0  0  0  0  0  0  0  0  0  0  0
   -1.0218    4.1232   -0.2431 C   0  0  0  0  0  0  0  0  0  0  0  0
   -2.0038    3.2208   -0.5974 C   0  0  0  0  0  0  0  0  0  0  0  0
   -1.7757    1.8584   -0.5774 C   0  0  0  0  0  0  0  0  0  0  0  0
   -2.9318    1.0576   -0.9842 C   0  0  0  0  0  0  0  0  0  0  0  0
   -3.1116   -0.2577   -0.8749 C   0  0  0  0  0  0  0  0  0  0  0  0
   -2.1974   -1.2643   -0.3155 C   0  0  0  0  0  0  0  0  0  0  0  0
   -2.7868   -2.4887   -0.1222 C   0  0  0  0  0  0  0  0  0  0  0  0
   -2.1016   -3.5698    0.3938 C   0  0  0  0  0  0  0  0  0  0  0  0
   -0.7727   -3.4518    0.7395 C   0  0  0  0  0  0  0  0  0  0  0  0
   -0.1442   -2.2153    0.5538 C   0  0  0  0  0  0  0  0  0  0  0  0
   -0.8493   -1.1532    0.0378 C   0  0  0  0  0  0  0  0  0  0  0  0
    2.2223    0.9828   -0.2584 C   0  0  0  0  0  0  0  0  0  0  0  0
    3.3656    0.6993    0.6549 C   0  0  0  0  0  0  0  0  0  0  0  0
  1  2  1  0
  2  3  1  0
  3  4  1  0
  4  5  1  0
  5  6  2  3
  6  7  1  0
  7  8  2  0
  8  9  1  0
  9 10  2  0
 10 11  1  0
 11 12  2  0
 12 13  1  0
 13 14  2  0
 14 15  1  0
 15 16  2  0
 16 17  1  0
 17 18  2  0
 18 19  1  0
 19 20  2  0
  5 21  1  0
 21 22  1  0
 22  2  1  0
 20  6  1  0
 12  7  1  0
 20 15  1  0
M  END
>  <zinc_id>  (1) 
ZINC000000968264

>  <smiles>  (1) 
CN1CCC(=C2c3ccccc3C=Cc3ccccc32)CC1

$$$$
