
     RDKit          3D

 12 13  0  0  0  0  0  0  0  0999 V2000
   -1.5242    0.0778   -2.0193 C   0  0  0  0  0  0  0  0  0  0  0  0
   -1.5127    0.4737   -0.6910 N   0  0  0  0  0  0  0  0  0  0  0  0
   -2.8380    0.5373   -0.1509 C   0  0  0  0  0  0  0  0  0  0  0  0
   -2.7835    0.0188    1.2649 C   0  0  0  0  0  0  0  0  0  0  0  0
   -1.3206   -0.1758    1.5306 C   0  0  0  0  0  0  0  0  0  0  0  0
   -0.9685   -0.8287    0.0445 C   0  0  2  0  0  0  0  0  0  0  0  0
    0.5472   -0.3861    0.0407 C   0  0  0  0  0  0  0  0  0  0  0  0
    1.2717   -0.5484    1.1605 C   0  0  0  0  0  0  0  0  0  0  0  0
    2.6108   -0.1590    1.1132 C   0  0  0  0  0  0  0  0  0  0  0  0
    3.0961    0.3553   -0.0499 C   0  0  0  0  0  0  0  0  0  0  0  0
    2.3561    0.5075   -1.1514 N   0  0  0  0  0  0  0  0  0  0  0  0
    1.0656    0.1277   -1.0920 C   0  0  0  0  0  0  0  0  0  0  0  0
  1  2  1  0
  2  3  1  0
  3  4  1  0
  4  5  1  0
  5  6  1  0
  6  7  1  1
  7  8  2  0
  8  9  1  0
  9 10  2  0
 10 11  1  0
 11 12  2  0
  6  2  1  0
 12  7  1  0
M  END
>  <zinc_id>  (1) 
ZINC000000001798

>  <smiles>  (1) 
CN1CCC[C@@H]1c1cccnc1

$$$$
