
     RDKit          2D

 12 12  0  0  0  0  0  0  0  0999 V2000
   -3.4848   -1.7507    0.0000 O   0  0  0  0  0  0  0  0  0  0  0  0
   -2.9555   -0.3471    0.0000 C   0  0  0  0  0  0  0  0  0  0  0  0
   -1.4754   -0.1037    0.0000 C   0  0  0  0  0  0  0  0  0  0  0  0
   -0.4085   -1.1581    0.0000 O   0  0  0  0  0  0  0  0  0  0  0  0
    0.9240   -0.4693    0.0000 C   0  0  0  0  0  0  0  0  0  0  0  0
    1.4698   -1.8664    0.0000 O   0  0  0  0  0  0  0  0  0  0  0  0
    2.3706   -0.0725    0.0000 C   0  0  0  0  0  0  0  0  0  0  0  0
    3.4375   -1.1269    0.0000 O   0  0  0  0  0  0  0  0  0  0  0  0
    0.6806    1.0109    0.0000 C   0  0  0  0  0  0  0  0  0  0  0  0
    1.7350    2.0778    0.0000 O   0  0  0  0  0  0  0  0  0  0  0  0
   -0.8023    1.2368    0.0000 C   0  0  0  0  0  0  0  0  0  0  0  0
   -1.4911    2.5692    0.0000 O   0  0  0  0  0  0  0  0  0  0  0  0
  1  2  1  0
  3  2  1  1
  3  4  1  0
  4  5  1  0
  5  6  1  1
  5  7  1  0
  7  8  1  0
  5  9  1  0
  9 10  1  1
  9 11  1  0
 11 12  1  6
 11  3  1  0
M  END
>  <zinc_id>  (1) 
ZINC000000895040

>  <smiles>  (1) 
OC[C@@H]1O[C@@](O)(CO)[C@H](O)[C@H]1O

$$$$
