
     RDKit          3D

 24 28  0  0  0  0  0  0  0  0999 V2000
    0.7555    1.0624    0.9779 O   0  0  0  0  0  0  0  0  0  0  0  0
    1.0004    0.9630    0.8495 C   0  0  0  0  0  0  0  0  0  0  0  0
    0.5226   -0.3392    0.6374 O   0  0  0  0  0  0  0  0  0  0  0  0
   -0.7129   -0.6667    1.0290 C   0  0  1  0  0  0  0  0  0  0  0  0
   -1.3577   -1.9111    0.9014 C   0  0  0  0  0  0  0  0  0  0  0  0
   -2.2721   -1.7042   -0.4453 C   0  0  1  0  0  0  0  0  0  0  0  0
   -3.5975   -2.4631    0.2009 C   0  0  0  0  0  0  0  0  0  0  0  0
   -4.5605   -1.4679    0.6557 C   0  0  1  0  0  0  0  0  0  0  0  0
   -3.7260   -0.9126    1.7819 C   0  0  0  0  0  0  0  0  0  0  0  0
   -3.0266    0.3603    1.0285 C   0  0  1  0  0  0  0  0  0  0  0  0
   -1.5788    0.1968    1.7924 C   0  0  0  0  0  0  0  0  0  0  0  0
   -2.6604   -0.2268   -0.3393 N   0  0  0  0  0  0  0  0  0  0  0  0
   -3.7732    0.0330   -1.1872 C   0  0  0  0  0  0  0  0  0  0  0  0
   -4.9191   -0.4900   -0.3791 C   0  0  0  0  0  0  0  0  0  0  0  0
   -6.0004   -0.0622   -0.6556 O   0  0  0  0  0  0  0  0  0  0  0  0
    2.3347    1.4224    0.4593 C   0  0  0  0  0  0  0  0  0  0  0  0
    2.8665    2.6640    0.6312 C   0  0  0  0  0  0  0  0  0  0  0  0
    4.1381    2.6924    0.1328 N   0  0  0  0  0  0  0  0  0  0  0  0
    4.4033    1.4720   -0.3505 C   0  0  0  0  0  0  0  0  0  0  0  0
    5.5297    0.9693   -0.9553 C   0  0  0  0  0  0  0  0  0  0  0  0
    5.5438   -0.3470   -1.3681 C   0  0  0  0  0  0  0  0  0  0  0  0
    4.4702   -1.1803   -1.1976 C   0  0  0  0  0  0  0  0  0  0  0  0
    3.3216   -0.6901   -0.5878 C   0  0  0  0  0  0  0  0  0  0  0  0
    3.2988    0.6256   -0.1717 C   0  0  0  0  0  0  0  0  0  0  0  0
  1  2  2  0
  2  3  1  0
  4  3  1  1
  4  5  1  0
  6  5  1  1
  6  7  1  0
  8  7  1  6
  8  9  1  0
  9 10  1  0
 10 11  1  1
 10 12  1  0
 12 13  1  0
 13 14  1  0
 14 15  2  0
  2 16  1  0
 16 17  2  0
 17 18  1  0
 18 19  1  0
 19 20  2  0
 20 21  1  0
 21 22  2  0
 22 23  1  0
 23 24  2  0
 11  4  1  0
 24 16  1  0
 12  6  1  0
 24 19  1  0
 14  8  1  0
M  END
>  <zinc_id>  (1) 
ZINC000000002688

>  <smiles>  (1) 
O=C(OC1C[C@@H]2CC3C[C@H](C1)N2CC3=O)c1c[nH]c2ccccc12

$$$$
