
     RDKit          3D

 33 36  0  0  0  0  0  0  0  0999 V2000
   -4.1892   -3.1265   -2.4845 C   0  0  0  0  0  0  0  0  0  0  0  0
   -3.6088   -2.2673   -1.9262 O   0  0  0  0  0  0  0  0  0  0  0  0
   -3.8154   -0.9076   -1.9208 N   0  0  0  0  0  0  0  0  0  0  0  0
   -3.3167   -0.1496   -1.0163 C   0  0  0  0  0  0  0  0  0  0  0  0
   -2.5035   -0.8587    0.0164 C   0  0  0  0  0  0  0  0  0  0  0  0
   -2.0446   -0.0420    0.8726 O   0  0  0  0  0  0  0  0  0  0  0  0
   -2.3062   -2.2134   -0.0023 N   0  0  0  0  0  0  0  0  0  0  0  0
   -1.4961   -2.9522    1.0039 C   0  0  2  0  0  0  0  0  0  0  0  0
   -1.1277   -1.9733    2.1291 C   0  0  0  0  0  0  0  0  0  0  0  0
   -1.8105   -1.5839    3.0586 O   0  0  0  0  0  0  0  0  0  0  0  0
    0.1822   -1.7906    1.6282 N   0  0  0  0  0  0  0  0  0  0  0  0
    1.4036   -1.1294    1.8110 C   0  0  0  0  0  0  0  0  0  0  0  0
    1.9656   -1.1443    3.1544 C   0  0  0  0  0  0  0  0  0  0  0  0
    3.0576   -0.5510    3.4193 O   0  0  0  0  0  0  0  0  0  0  0  0
    1.3695   -1.7819    4.2071 O   0  0  0  0  0  0  0  0  0  0  0  0
    2.0628   -0.4582    0.8139 C   0  0  0  0  0  0  0  0  0  0  0  0
    3.2914    0.1185    1.2761 C   0  0  0  0  0  0  0  0  0  0  0  0
    4.0651    0.7671    0.5999 C   0  0  0  0  0  0  0  0  0  0  0  0
    4.0255    1.1521   -0.7607 C   0  0  0  0  0  0  0  0  0  0  0  0
    3.0926    1.1559   -2.1643 S   0  0  0  0  0  0  0  0  0  0  0  0
    4.1445    1.8846   -3.2762 C   0  0  0  0  0  0  0  0  0  0  0  0
    5.1801    2.0938   -2.5006 N   0  0  0  0  0  0  0  0  0  0  0  0
    5.1962    1.7640   -1.2626 C   0  0  0  0  0  0  0  0  0  0  0  0
    6.4484    2.0447   -0.4384 C   0  0  0  0  0  0  0  0  0  0  0  0
    1.4602   -0.4051   -0.5094 C   0  0  0  0  0  0  0  0  0  0  0  0
    0.0764   -1.4595   -0.8513 S   0  0  0  0  0  0  0  0  0  0  0  0
    0.0794   -2.7666    0.4822 C   0  0  2  0  0  0  0  0  0  0  0  0
   -3.5090    1.3020   -0.9823 C   0  0  0  0  0  0  0  0  0  0  0  0
   -4.2452    1.9420   -1.9615 C   0  0  0  0  0  0  0  0  0  0  0  0
   -4.1622    3.5696   -1.4649 S   0  0  0  0  0  0  0  0  0  0  0  0
   -3.2160    3.3597   -0.0670 C   0  0  0  0  0  0  0  0  0  0  0  0
   -2.7384    4.3447    0.8874 N   0  0  0  0  0  0  0  0  0  0  0  0
   -3.0118    2.0622   -0.0502 N   0  0  0  0  0  0  0  0  0  0  0  0
  1  2  1  0
  2  3  1  0
  3  4  2  0
  4  5  1  0
  5  6  2  0
  5  7  1  0
  8  7  1  6
  8  9  1  0
  9 10  2  0
  9 11  1  0
 11 12  1  0
 12 13  1  0
 13 14  2  0
 13 15  1  0
 12 16  2  0
 16 17  1  0
 17 18  2  0
 18 19  1  0
 19 20  1  0
 20 21  1  0
 21 22  2  0
 22 23  1  0
 23 24  1  0
 16 25  1  0
 25 26  1  0
 27 26  1  6
  4 28  1  0
 28 29  2  0
 29 30  1  0
 30 31  1  0
 31 32  1  0
 31 33  2  0
 27  8  1  0
 33 28  1  0
 27 11  1  0
 23 19  2  0
M  END
>  <zinc_id>  (1) 
ZINC000004215234

>  <smiles>  (1) 
CO/N=C(\C(=O)N[C@@H]1C(=O)N2C(C(=O)O)=C(/C=C\c3scnc3C)CS[C@H]12)c1csc(N)n1

$$$$
