
     RDKit          3D

 19 21  0  0  0  0  0  0  0  0999 V2000
    5.1511   -0.1091    2.5800 C   0  0  0  0  0  0  0  0  0  0  0  0
    4.8435   -0.3602    2.0515 C   0  0  0  0  0  0  0  0  0  0  0  0
    4.1519   -0.9248    0.8631 C   0  0  0  0  0  0  0  0  0  0  0  0
    4.7629   -1.6203    0.0053 O   0  0  0  0  0  0  0  0  0  0  0  0
    2.7674   -0.7217    0.6142 N   0  0  0  0  0  0  0  0  0  0  0  0
    2.0781   -1.2527   -0.5196 C   0  0  0  0  0  0  0  0  0  0  0  0
    0.6675   -0.9998   -0.6995 C   0  0  0  0  0  0  0  0  0  0  0  0
    0.3038    0.5538   -0.8226 C   0  0  2  0  0  0  0  0  0  0  0  0
    0.8118    1.0158    0.6073 C   0  0  0  0  0  0  0  0  0  0  0  0
   -0.0515    0.2878    1.5871 C   0  0  0  0  0  0  0  0  0  0  0  0
   -1.3701    0.2867    0.8803 C   0  0  0  0  0  0  0  0  0  0  0  0
   -2.6644    0.1619    1.3837 C   0  0  0  0  0  0  0  0  0  0  0  0
   -3.7318    0.1994    0.5078 C   0  0  0  0  0  0  0  0  0  0  0  0
   -3.5544    0.3569   -0.8540 C   0  0  0  0  0  0  0  0  0  0  0  0
   -2.2844    0.4803   -1.3586 C   0  0  0  0  0  0  0  0  0  0  0  0
   -1.2159    0.4390   -0.4479 C   0  0  0  0  0  0  0  0  0  0  0  0
   -2.3942    0.6344   -2.8331 C   0  0  0  0  0  0  0  0  0  0  0  0
   -3.8118    1.1470   -2.9930 C   0  0  0  0  0  0  0  0  0  0  0  0
   -4.4595    0.4256   -1.9366 O   0  0  0  0  0  0  0  0  0  0  0  0
  1  2  1  0
  2  3  1  0
  3  4  2  0
  3  5  1  0
  5  6  1  0
  6  7  1  0
  8  7  1  1
  8  9  1  0
  9 10  1  0
 10 11  1  0
 11 12  2  0
 12 13  1  0
 13 14  2  0
 14 15  1  0
 15 16  2  0
 15 17  1  0
 17 18  1  0
 18 19  1  0
 16  8  1  0
 16 11  1  0
 19 14  1  0
M  END
>  <zinc_id>  (1) 
ZINC000003960338

>  <smiles>  (1) 
CCC(=O)NCC[C@@H]1CCc2ccc3c(c21)CCO3

$$$$
