
     RDKit          3D

 34 37  0  0  0  0  0  0  0  0999 V2000
   -6.0198   -3.4321   -0.7980 C   0  0  0  0  0  0  0  0  0  0  0  0
   -6.1306   -3.0972   -1.2191 N   0  0  0  0  0  0  0  0  0  0  0  0
   -6.6289   -3.5500   -2.5377 C   0  0  0  0  0  0  0  0  0  0  0  0
   -6.2284   -1.6190   -1.2034 C   0  0  0  0  0  0  0  0  0  0  0  0
   -4.8735   -1.0650   -0.9483 C   0  0  0  0  0  0  0  0  0  0  0  0
   -3.8068   -1.8187   -0.7739 C   0  0  0  0  0  0  0  0  0  0  0  0
   -2.5235   -1.1681   -0.5293 C   0  0  0  0  0  0  0  0  0  0  0  0
   -1.5217   -1.9364   -0.3670 O   0  0  0  0  0  0  0  0  0  0  0  0
   -2.3601    0.2381   -0.4683 N   0  0  0  0  0  0  0  0  0  0  0  0
   -1.0954    0.8534   -0.2268 C   0  0  0  0  0  0  0  0  0  0  0  0
    0.0705    0.1577   -0.0297 C   0  0  0  0  0  0  0  0  0  0  0  0
    1.2357    0.8486    0.1965 C   0  0  0  0  0  0  0  0  0  0  0  0
    1.2528    2.2074    0.2282 C   0  0  0  0  0  0  0  0  0  0  0  0
    0.0908    2.9339    0.0324 C   0  0  0  0  0  0  0  0  0  0  0  0
   -1.0815    2.2569   -0.1948 C   0  0  0  0  0  0  0  0  0  0  0  0
   -2.2460    2.9674   -0.3912 O   0  0  0  0  0  0  0  0  0  0  0  0
   -2.0471    4.4953   -0.3239 C   0  0  1  0  0  0  0  0  0  0  0  0
   -3.6554    4.8204   -0.6062 C   0  0  0  0  0  0  0  0  0  0  0  0
   -4.2029    4.8518    0.7540 C   0  0  0  0  0  0  0  0  0  0  0  0
   -3.4285    3.8936    1.4305 O   0  0  0  0  0  0  0  0  0  0  0  0
   -2.2172    4.5505    1.3328 C   0  0  0  0  0  0  0  0  0  0  0  0
    2.3968    2.8840    0.4508 N   0  0  0  0  0  0  0  0  0  0  0  0
    3.5273    2.2060    0.6426 C   0  0  0  0  0  0  0  0  0  0  0  0
    3.5236    0.8826    0.6141 N   0  0  0  0  0  0  0  0  0  0  0  0
    2.4051    0.1597    0.3951 C   0  0  0  0  0  0  0  0  0  0  0  0
    2.4059   -1.2617    0.3657 N   0  0  0  0  0  0  0  0  0  0  0  0
    3.6083   -1.9767    0.5712 C   0  0  0  0  0  0  0  0  0  0  0  0
    3.5769   -3.3577    0.5328 C   0  0  0  0  0  0  0  0  0  0  0  0
    4.6863   -4.1459    0.7200 C   0  0  0  0  0  0  0  0  0  0  0  0
    5.9150   -3.5199    0.9630 C   0  0  0  0  0  0  0  0  0  0  0  0
    7.0188   -4.3025    1.1498 F   0  0  0  0  0  0  0  0  0  0  0  0
    5.9824   -2.1513    1.0080 C   0  0  0  0  0  0  0  0  0  0  0  0
    7.5266   -1.4031    1.3130 Cl  0  0  0  0  0  0  0  0  0  0  0  0
    4.8445   -1.4019    0.8144 C   0  0  0  0  0  0  0  0  0  0  0  0
  1  2  1  0
  2  3  1  0
  2  4  1  0
  4  5  1  0
  5  6  2  0
  6  7  1  0
  7  8  2  0
  7  9  1  0
  9 10  1  0
 10 11  2  0
 11 12  1  0
 12 13  2  0
 13 14  1  0
 14 15  2  0
 15 16  1  0
 17 16  1  1
 17 18  1  0
 18 19  1  0
 19 20  1  0
 20 21  1  0
 13 22  1  0
 22 23  2  0
 23 24  1  0
 24 25  2  0
 25 26  1  0
 26 27  1  0
 27 28  2  0
 28 29  1  0
 29 30  2  0
 30 31  1  0
 30 32  1  0
 32 33  1  0
 32 34  2  0
 15 10  1  0
 21 17  1  0
 34 27  1  0
 25 12  1  0
M  END
>  <zinc_id>  (1) 
ZINC000003976838

>  <smiles>  (1) 
CN(C)C/C=C/C(=O)Nc1cc2c(Nc3ccc(F)c(Cl)c3)ncnc2cc1O[C@H]1CCOC1

$$$$
