
     RDKit          3D

 21 22  0  0  0  0  0  0  0  0999 V2000
   -5.0378   -0.9875   -0.5472 N   0  0  0  0  0  0  0  0  0  0  0  0
   -4.3759    0.5195   -0.0396 S   0  0  0  0  0  0  0  0  0  0  0  0
   -4.7752    1.6483   -0.9401 O   0  0  0  0  0  0  0  0  0  0  0  0
   -4.8664    0.7562    1.3824 O   0  0  0  0  0  0  0  0  0  0  0  0
   -2.6369    0.3570    0.0624 C   0  0  0  0  0  0  0  0  0  0  0  0
   -1.9954   -0.8265   -0.2358 C   0  0  0  0  0  0  0  0  0  0  0  0
   -0.6324   -0.9989   -0.1694 C   0  0  0  0  0  0  0  0  0  0  0  0
    0.0212   -2.2591   -0.4895 C   0  0  0  0  0  0  0  0  0  0  0  0
    1.2626   -2.3921   -0.4218 O   0  0  0  0  0  0  0  0  0  0  0  0
   -0.7505   -3.3377   -0.8786 O   0  0  0  0  0  0  0  0  0  0  0  0
    0.1445    0.0852    0.2219 C   0  0  0  0  0  0  0  0  0  0  0  0
    1.5656   -0.0587    0.3019 N   0  0  0  0  0  0  0  0  0  0  0  0
    2.4157    1.0322    0.7014 C   0  0  0  0  0  0  0  0  0  0  0  0
    3.8314    0.5355    0.6755 C   0  0  0  0  0  0  0  0  0  0  0  0
    4.6618    0.6019   -0.4244 C   0  0  0  0  0  0  0  0  0  0  0  0
    5.8592    0.0446   -0.0301 C   0  0  0  0  0  0  0  0  0  0  0  0
    5.7142   -0.3376    1.2859 C   0  0  0  0  0  0  0  0  0  0  0  0
    4.4959   -0.0223    1.6479 O   0  0  0  0  0  0  0  0  0  0  0  0
   -0.4632    1.2673    0.5226 C   0  0  0  0  0  0  0  0  0  0  0  0
   -1.8529    1.4224    0.4487 C   0  0  0  0  0  0  0  0  0  0  0  0
   -2.5854    2.9503    0.8419 Cl  0  0  0  0  0  0  0  0  0  0  0  0
  1  2  1  0
  2  3  2  0
  2  4  2  0
  2  5  1  0
  5  6  2  0
  6  7  1  0
  7  8  1  0
  8  9  2  0
  8 10  1  0
  7 11  2  0
 11 12  1  0
 12 13  1  0
 13 14  1  0
 14 15  2  0
 15 16  1  0
 16 17  2  0
 17 18  1  0
 11 19  1  0
 19 20  2  0
 20 21  1  0
 20  5  1  0
 18 14  1  0
M  END
>  <zinc_id>  (1) 
ZINC000000035804

>  <smiles>  (1) 
NS(=O)(=O)c1cc(C(=O)O)c(NCc2ccco2)cc1Cl

$$$$
