
     RDKit          3D

 28 31  0  0  0  0  0  0  0  0999 V2000
    2.6650    2.0811    2.1232 C   0  0  0  0  0  0  0  0  0  0  0  0
    2.9740    1.7191    0.5783 C   0  0  2  0  0  0  0  0  0  0  0  0
    1.4689    2.0791    0.1002 C   0  0  0  0  0  0  0  0  0  0  0  0
    0.7684    0.7197    0.5402 C   0  0  1  0  0  0  0  0  0  0  0  0
   -0.3275    0.5614   -0.7168 C   0  0  2  0  0  0  0  0  0  0  0  0
   -1.1809    1.8336   -0.3500 C   0  0  0  0  0  0  0  0  0  0  0  0
   -2.2684    1.7541    0.4736 C   0  0  0  0  0  0  0  0  0  0  0  0
   -3.0532    0.4921    0.3064 C   0  0  0  0  0  0  0  0  0  0  0  0
   -4.2052    0.4949    0.8504 C   0  0  0  0  0  0  0  0  0  0  0  0
   -5.0532   -0.6817    0.7523 C   0  0  0  0  0  0  0  0  0  0  0  0
   -6.1974   -0.7000    1.2830 O   0  0  0  0  0  0  0  0  0  0  0  0
   -4.4682   -1.7705    0.0168 C   0  0  0  0  0  0  0  0  0  0  0  0
   -3.2715   -1.7336   -0.5324 C   0  0  0  0  0  0  0  0  0  0  0  0
   -2.4082   -0.6161   -0.4703 C   0  0  1  0  0  0  0  0  0  0  0  0
   -2.5087    0.0070   -1.8985 C   0  0  0  0  0  0  0  0  0  0  0  0
   -1.1081   -0.5913    0.0575 C   0  0  2  0  0  0  0  0  0  0  0  0
   -1.1658   -0.3665    1.8206 Cl  0  0  0  0  0  0  0  0  0  0  0  0
   -0.1640   -1.8926    0.0099 C   0  0  1  0  0  0  0  0  0  0  0  0
   -0.7232   -2.4126   -1.3094 O   0  0  0  0  0  0  0  0  0  0  0  0
    1.1865   -1.3369   -0.6981 C   0  0  0  0  0  0  0  0  0  0  0  0
    1.7951   -0.1916   -0.2905 C   0  0  1  0  0  0  0  0  0  0  0  0
    2.1504    0.5976   -1.5888 C   0  0  0  0  0  0  0  0  0  0  0  0
    2.8287    0.1122    0.6603 C   0  0  2  0  0  0  0  0  0  0  0  0
    2.5285   -0.3290    1.8927 O   0  0  0  0  0  0  0  0  0  0  0  0
    4.2012   -0.3155    0.3391 C   0  0  0  0  0  0  0  0  0  0  0  0
    4.8183   -0.9562    1.1690 O   0  0  0  0  0  0  0  0  0  0  0  0
    4.9031   -0.0278   -0.9256 C   0  0  0  0  0  0  0  0  0  0  0  0
    5.8155    1.4699   -0.9200 Cl  0  0  0  0  0  0  0  0  0  0  0  0
  2  1  1  1
  2  3  1  0
  4  3  1  6
  4  5  1  0
  5  6  1  1
  6  7  1  0
  7  8  1  0
  8  9  2  0
  9 10  1  0
 10 11  2  0
 10 12  1  0
 12 13  2  0
 13 14  1  0
 14 15  1  6
 14 16  1  0
 16 17  1  1
 16 18  1  0
 18 19  1  6
 18 20  1  0
 20 21  1  0
 21 22  1  6
 21 23  1  0
 23 24  1  1
 23 25  1  0
 25 26  2  0
 25 27  1  0
 27 28  1  0
 23  2  1  0
 21  4  1  0
 16  5  1  0
 14  8  1  0
M  END
>  <zinc_id>  (1) 
ZINC000004097440

>  <smiles>  (1) 
C[C@@H]1C[C@H]2[C@@H]3CCC4=CC(=O)C=C[C@]4(C)[C@@]3(Cl)[C@@H](O)C[C@]2(C)[C@@]1(O)C(=O)CCl

$$$$
