
     RDKit          3D

 33 35  0  0  0  0  0  0  0  0999 V2000
   -6.8217   -1.3873    3.2027 C   0  0  0  0  0  0  0  0  0  0  0  0
   -6.2573   -0.8783    2.0199 O   0  0  0  0  0  0  0  0  0  0  0  0
   -6.9756   -0.7068    0.8432 C   0  0  0  0  0  0  0  0  0  0  0  0
   -8.3147   -1.0509    0.8223 C   0  0  0  0  0  0  0  0  0  0  0  0
   -8.9920   -0.8640   -0.3698 C   0  0  0  0  0  0  0  0  0  0  0  0
   -8.3846   -0.3622   -1.4919 C   0  0  0  0  0  0  0  0  0  0  0  0
   -9.3142   -0.1578   -2.9571 Cl  0  0  0  0  0  0  0  0  0  0  0  0
   -7.0246   -0.0303   -1.4129 C   0  0  0  0  0  0  0  0  0  0  0  0
   -6.3215   -0.2014   -0.2508 C   0  0  0  0  0  0  0  0  0  0  0  0
   -4.9150    0.1359   -0.1497 C   0  0  0  0  0  0  0  0  0  0  0  0
   -4.3112    0.6043   -1.1655 O   0  0  0  0  0  0  0  0  0  0  0  0
   -4.1527   -0.0234    1.0251 N   0  0  0  0  0  0  0  0  0  0  0  0
   -2.7706    0.2915    1.1785 C   0  0  0  0  0  0  0  0  0  0  0  0
   -1.8703   -0.4807    0.2427 C   0  0  0  0  0  0  0  0  0  0  0  0
   -0.4723   -0.0637    0.5022 C   0  0  0  0  0  0  0  0  0  0  0  0
    0.3784   -0.6448    1.4016 C   0  0  0  0  0  0  0  0  0  0  0  0
    1.6678   -0.2123    1.5984 C   0  0  0  0  0  0  0  0  0  0  0  0
    2.1428    0.8376    0.8798 C   0  0  0  0  0  0  0  0  0  0  0  0
    3.7607    1.4566    1.0627 S   0  0  0  0  0  0  0  0  0  0  0  0
    3.7289    2.9492    0.8827 O   0  0  0  0  0  0  0  0  0  0  0  0
    4.2194    1.2143    2.4908 O   0  0  0  0  0  0  0  0  0  0  0  0
    4.9028    0.7205    0.0317 N   0  0  0  0  0  0  0  0  0  0  0  0
    4.6666   -0.2036   -0.8149 C   0  0  0  0  0  0  0  0  0  0  0  0
    3.3873   -0.6713   -0.9325 O   0  0  0  0  0  0  0  0  0  0  0  0
    5.7640   -0.6854   -1.5835 N   0  0  0  0  0  0  0  0  0  0  0  0
    7.0806   -0.8374   -0.9571 C   0  0  0  0  0  0  0  0  0  0  0  0
    7.6007    0.4684   -0.4260 C   0  0  0  0  0  0  0  0  0  0  0  0
    8.7928    0.9852   -1.1653 C   0  0  0  0  0  0  0  0  0  0  0  0
    9.9493    0.0341   -1.1814 C   0  0  0  0  0  0  0  0  0  0  0  0
    9.4588   -1.3278   -1.5534 C   0  0  0  0  0  0  0  0  0  0  0  0
    8.0358   -1.3674   -2.0039 C   0  0  0  0  0  0  0  0  0  0  0  0
    1.3257    1.4561   -0.0377 C   0  0  0  0  0  0  0  0  0  0  0  0
    0.0361    1.0032   -0.2165 C   0  0  0  0  0  0  0  0  0  0  0  0
  1  2  1  0
  2  3  1  0
  3  4  2  0
  4  5  1  0
  5  6  2  0
  6  7  1  0
  6  8  1  0
  8  9  2  0
  9 10  1  0
 10 11  2  0
 10 12  1  0
 12 13  1  0
 13 14  1  0
 14 15  1  0
 15 16  2  0
 16 17  1  0
 17 18  2  0
 18 19  1  0
 19 20  2  0
 19 21  2  0
 19 22  1  0
 22 23  2  0
 23 24  1  0
 23 25  1  0
 25 26  1  0
 26 27  1  0
 27 28  1  0
 28 29  1  0
 29 30  1  0
 30 31  1  0
 18 32  1  0
 32 33  2  0
  9  3  1  0
 33 15  1  0
 31 26  1  0
M  END
>  <zinc_id>  (1) 
ZINC000000537805

>  <smiles>  (1) 
COc1ccc(Cl)cc1C(=O)NCCc1ccc(S(=O)(=O)/N=C(\O)NC2CCCCC2)cc1

$$$$
