
     RDKit          3D

 39 41  0  0  0  0  0  0  0  0999 V2000
   -0.3355   -6.9001   -2.0712 C   0  0  0  0  0  0  0  0  0  0  0  0
   -0.8137   -6.3392   -1.9902 C   0  0  0  0  0  0  0  0  0  0  0  0
   -0.5159   -5.1409   -1.1669 C   0  0  0  0  0  0  0  0  0  0  0  0
    0.5717   -5.0080   -0.5558 O   0  0  0  0  0  0  0  0  0  0  0  0
   -1.3464   -4.0834   -0.9791 O   0  0  0  0  0  0  0  0  0  0  0  0
   -0.7570   -2.9274   -0.0360 C   0  0  1  0  0  0  0  0  0  0  0  0
   -2.0338   -2.1079   -0.2026 O   0  0  0  0  0  0  0  0  0  0  0  0
   -1.8413   -0.6428    0.5715 P   0  0  2  0  0  0  0  0  0  0  0  0
   -2.6178   -0.5181    1.8572 O   0  0  0  0  0  0  0  0  0  0  0  0
   -2.5076    0.7302   -0.4819 C   0  0  0  0  0  0  0  0  0  0  0  0
   -2.3719    1.9957    0.3133 C   0  0  0  0  0  0  0  0  0  0  0  0
   -3.1319    1.9684    1.5923 C   0  0  0  0  0  0  0  0  0  0  0  0
   -4.6018    1.7809    1.3058 C   0  0  0  0  0  0  0  0  0  0  0  0
   -5.0937    2.9055    0.4731 C   0  0  0  0  0  0  0  0  0  0  0  0
   -5.5951    4.0574    1.0592 C   0  0  0  0  0  0  0  0  0  0  0  0
   -6.0541    5.1027    0.2604 C   0  0  0  0  0  0  0  0  0  0  0  0
   -6.0089    4.9895   -1.1141 C   0  0  0  0  0  0  0  0  0  0  0  0
   -5.5109    3.8454   -1.6864 C   0  0  0  0  0  0  0  0  0  0  0  0
   -5.0513    2.7988   -0.8896 C   0  0  0  0  0  0  0  0  0  0  0  0
   -0.0852   -0.2511    0.8016 C   0  0  0  0  0  0  0  0  0  0  0  0
    0.5414    0.1175   -0.4911 C   0  0  0  0  0  0  0  0  0  0  0  0
   -0.2100    0.1011   -1.4991 O   0  0  0  0  0  0  0  0  0  0  0  0
    1.9129    0.4539   -0.4941 N   0  0  0  0  0  0  0  0  0  0  0  0
    2.8031    0.5066    0.4992 C   0  0  0  0  0  0  0  0  0  0  0  0
    4.2213    1.0329   -0.1201 C   0  0  2  0  0  0  0  0  0  0  0  0
    4.3519    2.2495    1.0089 C   0  0  0  0  0  0  0  0  0  0  0  0
    5.6365    2.9450    0.6699 C   0  0  0  0  0  0  0  0  0  0  0  0
    6.6797    2.6267    1.7171 C   0  0  0  0  0  0  0  0  0  0  0  0
    6.8333    1.1403    1.7732 C   0  0  0  0  0  0  0  0  0  0  0  0
    5.5590    0.5432    2.3014 C   0  0  0  0  0  0  0  0  0  0  0  0
    4.4109    1.5104    2.3290 C   0  0  0  0  0  0  0  0  0  0  0  0
    3.5017    2.0058   -1.2236 C   0  0  0  0  0  0  0  0  0  0  0  0
    2.5261    0.8359   -1.8839 C   0  0  1  0  0  0  0  0  0  0  0  0
    3.5969   -0.3345   -2.0012 C   0  0  0  0  0  0  0  0  0  0  0  0
    4.2621   -0.2518   -3.0337 O   0  0  0  0  0  0  0  0  0  0  0  0
    3.7282   -1.2773   -1.0691 O   0  0  0  0  0  0  0  0  0  0  0  0
   -1.1455   -3.7290    1.3672 C   0  0  0  0  0  0  0  0  0  0  0  0
   -2.6351   -3.8443    1.2305 C   0  0  0  0  0  0  0  0  0  0  0  0
   -0.8723   -2.8875    2.5229 C   0  0  0  0  0  0  0  0  0  0  0  0
  1  2  1  0
  2  3  1  0
  3  4  2  0
  3  5  1  0
  6  5  1  6
  6  7  1  0
  7  8  1  0
  8  9  2  0
  8 10  1  6
 10 11  1  0
 11 12  1  0
 12 13  1  0
 13 14  1  0
 14 15  2  0
 15 16  1  0
 16 17  2  0
 17 18  1  0
 18 19  2  0
  8 20  1  0
 20 21  1  0
 21 22  2  0
 21 23  1  0
 23 24  1  0
 24 25  1  0
 25 26  1  1
 26 27  1  0
 27 28  1  0
 28 29  1  0
 29 30  1  0
 30 31  1  0
 25 32  1  0
 32 33  1  0
 33 34  1  1
 34 35  2  0
 34 36  1  0
  6 37  1  0
 37 38  1  0
 37 39  1  0
 19 14  1  0
 33 23  1  0
 31 26  1  0
M  END
>  <zinc_id>  (1) 
ZINC000004097310

>  <smiles>  (1) 
CCC(=O)O[C@H](O[P@](=O)(CCCCc1ccccc1)CC(=O)N1C[C@H](C2CCCCC2)C[C@H]1C(=O)O)C(C)C

$$$$
