
     RDKit          3D

 13 12  0  0  0  0  0  0  0  0999 V2000
   -2.6336   -0.5661   -1.0886 O   0  0  0  0  0  0  0  0  0  0  0  0
   -2.3982   -0.5432    0.1499 C   0  0  0  0  0  0  0  0  0  0  0  0
   -3.4388   -0.9456    0.9768 O   0  0  0  0  0  0  0  0  0  0  0  0
   -1.1444   -0.1364    0.7773 C   0  0  0  0  0  0  0  0  0  0  0  0
   -0.0666    0.2777   -0.1879 C   0  0  0  0  0  0  0  0  0  0  0  0
   -0.3998    1.3381   -0.9833 O   0  0  0  0  0  0  0  0  0  0  0  0
    1.1513    0.6623    0.6674 C   0  0  0  0  0  0  0  0  0  0  0  0
    2.2745    1.0897   -0.2054 C   0  0  0  0  0  0  0  0  0  0  0  0
    2.9570    0.1976   -0.7587 O   0  0  0  0  0  0  0  0  0  0  0  0
    2.5945    2.4113   -0.4311 O   0  0  0  0  0  0  0  0  0  0  0  0
    0.2630   -0.8916   -1.0349 C   0  0  0  0  0  0  0  0  0  0  0  0
    0.2087   -0.7742   -2.2757 O   0  0  0  0  0  0  0  0  0  0  0  0
    0.6323   -2.1197   -0.4759 O   0  0  0  0  0  0  0  0  0  0  0  0
  1  2  2  0
  2  3  1  0
  2  4  1  0
  4  5  1  0
  5  6  1  0
  5  7  1  0
  7  8  1  0
  8  9  2  0
  8 10  1  0
  5 11  1  0
 11 12  2  0
 11 13  1  0
M  END
>  <zinc_id>  (1) 
ZINC000000895081

>  <smiles>  (1) 
O=C(O)CC(O)(CC(=O)O)C(=O)O

$$$$
