
     RDKit          3D

 18 19  0  0  0  0  0  0  0  0999 V2000
   -4.8405   -0.9798    1.6537 C   0  0  0  0  0  0  0  0  0  0  0  0
   -4.7817   -0.9282    0.1605 C   0  0  0  0  0  0  0  0  0  0  0  0
   -3.7514   -0.0368   -0.2789 O   0  0  0  0  0  0  0  0  0  0  0  0
   -2.4177   -0.2359    0.0578 C   0  0  0  0  0  0  0  0  0  0  0  0
   -2.1849   -1.2453    0.7691 O   0  0  0  0  0  0  0  0  0  0  0  0
   -1.3750    0.6727   -0.3912 C   0  0  0  0  0  0  0  0  0  0  0  0
   -1.5688    1.8215   -1.1898 C   0  0  0  0  0  0  0  0  0  0  0  0
   -0.3640    2.3724   -1.3747 N   0  0  0  0  0  0  0  0  0  0  0  0
    0.5094    1.5837   -0.7134 C   0  0  0  0  0  0  0  0  0  0  0  0
   -0.0871    0.5720   -0.1273 N   0  0  0  0  0  0  0  0  0  0  0  0
    0.4823   -0.5598    0.7172 C   0  0  2  0  0  0  0  0  0  0  0  0
    0.6993    0.2916    2.1147 C   0  0  0  0  0  0  0  0  0  0  0  0
    2.0185   -0.5082    0.2532 C   0  0  0  0  0  0  0  0  0  0  0  0
    2.3504   -1.4032   -0.7452 C   0  0  0  0  0  0  0  0  0  0  0  0
    3.6366   -1.4477   -1.2322 C   0  0  0  0  0  0  0  0  0  0  0  0
    4.5692   -0.5888   -0.7048 C   0  0  0  0  0  0  0  0  0  0  0  0
    4.2039    0.2857    0.2848 C   0  0  0  0  0  0  0  0  0  0  0  0
    2.9014    0.3339    0.7810 C   0  0  0  0  0  0  0  0  0  0  0  0
  1  2  1  0
  2  3  1  0
  3  4  1  0
  4  5  2  0
  4  6  1  0
  6  7  2  0
  7  8  1  0
  8  9  2  0
  9 10  1  0
 10 11  1  0
 11 12  1  1
 11 13  1  0
 13 14  2  0
 14 15  1  0
 15 16  2  0
 16 17  1  0
 17 18  2  0
 10  6  1  0
 18 13  1  0
M  END
>  <zinc_id>  (1) 
ZINC000000001408

>  <smiles>  (1) 
CCOC(=O)c1cncn1[C@H](C)c1ccccc1

$$$$
