
     RDKit          3D

 22 23  0  0  0  0  0  0  0  0999 V2000
   -4.1453    1.0684   -1.8059 C   0  0  0  0  0  0  0  0  0  0  0  0
   -4.2599    0.5784   -0.3745 C   0  0  0  0  0  0  0  0  0  0  0  0
   -4.7155   -0.8911   -0.4824 C   0  0  0  0  0  0  0  0  0  0  0  0
   -3.1017    0.6895    0.3805 O   0  0  0  0  0  0  0  0  0  0  0  0
   -1.8558    0.1406    0.1896 C   0  0  0  0  0  0  0  0  0  0  0  0
   -0.8478    0.7812   -0.4647 C   0  0  0  0  0  0  0  0  0  0  0  0
    0.3997    0.2100   -0.6389 C   0  0  0  0  0  0  0  0  0  0  0  0
    0.6891   -1.0376   -0.1577 C   0  0  0  0  0  0  0  0  0  0  0  0
    1.9780   -1.6719   -0.2124 C   0  0  0  0  0  0  0  0  0  0  0  0
    2.1042   -2.9271   -0.2279 O   0  0  0  0  0  0  0  0  0  0  0  0
    3.1743   -0.8115   -0.2423 C   0  0  0  0  0  0  0  0  0  0  0  0
    3.1386    0.4789   -0.6909 C   0  0  0  0  0  0  0  0  0  0  0  0
    4.2559    1.2631   -0.6490 C   0  0  0  0  0  0  0  0  0  0  0  0
    5.4541    0.7441   -0.1430 C   0  0  0  0  0  0  0  0  0  0  0  0
    6.9108    1.6864   -0.0374 Cl  0  0  0  0  0  0  0  0  0  0  0  0
    5.4651   -0.5814    0.3097 C   0  0  0  0  0  0  0  0  0  0  0  0
    4.3392   -1.3655    0.2659 C   0  0  0  0  0  0  0  0  0  0  0  0
   -0.3617   -1.6884    0.5104 C   0  0  0  0  0  0  0  0  0  0  0  0
   -1.5913   -1.1474    0.6908 C   0  0  0  0  0  0  0  0  0  0  0  0
   -5.3405    1.2890    0.3626 C   0  0  0  0  0  0  0  0  0  0  0  0
   -5.0582    1.9052    1.4116 O   0  0  0  0  0  0  0  0  0  0  0  0
   -6.6314    1.2872   -0.0781 O   0  0  0  0  0  0  0  0  0  0  0  0
  1  2  1  0
  2  3  1  0
  2  4  1  0
  4  5  1  0
  5  6  2  0
  6  7  1  0
  7  8  2  0
  8  9  1  0
  9 10  2  0
  9 11  1  0
 11 12  2  0
 12 13  1  0
 13 14  2  0
 14 15  1  0
 14 16  1  0
 16 17  2  0
  8 18  1  0
 18 19  2  0
  2 20  1  0
 20 21  2  0
 20 22  1  0
 19  5  1  0
 17 11  1  0
M  END
>  <zinc_id>  (1) 
ZINC000000001984

>  <smiles>  (1) 
CC(C)(Oc1ccc(C(=O)c2ccc(Cl)cc2)cc1)C(=O)O

$$$$
