
     RDKit          3D

 22 23  0  0  0  0  0  0  0  0999 V2000
    4.5265    1.5437    0.6861 O   0  0  0  0  0  0  0  0  0  0  0  0
    4.5242    0.2965    0.6895 C   0  0  0  0  0  0  0  0  0  0  0  0
    5.5406   -0.3594    1.3640 O   0  0  0  0  0  0  0  0  0  0  0  0
    3.4792   -0.4590    0.0016 C   0  0  0  0  0  0  0  0  0  0  0  0
    2.4832    0.2269   -0.6596 C   0  0  0  0  0  0  0  0  0  0  0  0
    1.4540   -0.4372   -1.3372 C   0  0  0  0  0  0  0  0  0  0  0  0
    0.4629    0.2769   -1.9905 N   0  0  0  0  0  0  0  0  0  0  0  0
   -0.5803    0.7782   -1.9211 N   0  0  0  0  0  0  0  0  0  0  0  0
   -1.5377    0.9250   -0.9100 C   0  0  0  0  0  0  0  0  0  0  0  0
   -1.5285    2.0156   -0.0305 C   0  0  0  0  0  0  0  0  0  0  0  0
   -2.4474    2.1886    0.9628 C   0  0  0  0  0  0  0  0  0  0  0  0
   -3.4440    1.2723    1.1412 C   0  0  0  0  0  0  0  0  0  0  0  0
   -4.4048    1.3979    2.1347 O   0  0  0  0  0  0  0  0  0  0  0  0
   -3.4785    0.1767    0.2812 C   0  0  0  0  0  0  0  0  0  0  0  0
   -4.5469   -0.7986    0.4780 C   0  0  0  0  0  0  0  0  0  0  0  0
   -5.4046   -0.6599    1.3866 O   0  0  0  0  0  0  0  0  0  0  0  0
   -4.6031   -1.8948   -0.3624 O   0  0  0  0  0  0  0  0  0  0  0  0
   -2.5503    0.0079   -0.7173 C   0  0  0  0  0  0  0  0  0  0  0  0
    1.5122   -1.8264   -1.2935 C   0  0  0  0  0  0  0  0  0  0  0  0
    2.5083   -2.5112   -0.6323 C   0  0  0  0  0  0  0  0  0  0  0  0
    3.5129   -1.8367    0.0293 C   0  0  0  0  0  0  0  0  0  0  0  0
    4.5225   -2.4805    0.6994 O   0  0  0  0  0  0  0  0  0  0  0  0
  1  2  2  0
  2  3  1  0
  2  4  1  0
  4  5  2  0
  5  6  1  0
  6  7  1  0
  7  8  2  0
  8  9  1  0
  9 10  2  0
 10 11  1  0
 11 12  2  0
 12 13  1  0
 12 14  1  0
 14 15  1  0
 15 16  2  0
 15 17  1  0
 14 18  2  0
  6 19  2  0
 19 20  1  0
 20 21  2  0
 21 22  1  0
 21  4  1  0
 18  9  1  0
M  END
>  <zinc_id>  (1) 
ZINC000003812865

>  <smiles>  (1) 
O=C(O)c1cc(/N=N/c2ccc(O)c(C(=O)O)c2)ccc1O

$$$$
