
     RDKit          3D

 31 34  0  0  0  0  0  0  0  0999 V2000
    5.5806    0.8281    0.0566 O   0  0  0  0  0  0  0  0  0  0  0  0
    6.0261    0.6438    0.3457 C   0  0  0  0  0  0  0  0  0  0  0  0
    6.9678    1.6925    0.5469 O   0  0  0  0  0  0  0  0  0  0  0  0
    6.2017   -0.7037    0.8236 C   0  0  0  0  0  0  0  0  0  0  0  0
    4.9451   -1.6616    0.4893 C   0  0  2  0  0  0  0  0  0  0  0  0
    4.9979   -1.4902   -1.0073 O   0  0  0  0  0  0  0  0  0  0  0  0
    3.7999   -0.5676    0.7586 C   0  0  0  0  0  0  0  0  0  0  0  0
    2.4403   -1.4255    0.4904 C   0  0  2  0  0  0  0  0  0  0  0  0
    2.7529   -1.7496   -0.9412 O   0  0  0  0  0  0  0  0  0  0  0  0
    1.5842   -0.0920    0.0752 C   0  0  0  0  0  0  0  0  0  0  0  0
    0.3059   -0.3546    0.1324 C   0  0  0  0  0  0  0  0  0  0  0  0
   -0.7625    0.5631   -0.1628 C   0  0  0  0  0  0  0  0  0  0  0  0
   -0.4838    1.8481   -0.5549 C   0  0  0  0  0  0  0  0  0  0  0  0
    0.8089    2.3942   -0.7087 C   0  0  0  0  0  0  0  0  0  0  0  0
    1.6405    3.3753   -1.0932 C   0  0  0  0  0  0  0  0  0  0  0  0
    0.9054    3.7317    0.1102 C   0  0  0  0  0  0  0  0  0  0  0  0
   -1.5537    2.6513   -0.8079 N   0  0  0  0  0  0  0  0  0  0  0  0
   -2.8383    2.2571   -0.6957 C   0  0  0  0  0  0  0  0  0  0  0  0
   -3.9074    3.0908   -0.9532 C   0  0  0  0  0  0  0  0  0  0  0  0
   -5.2210    2.6883   -0.8344 C   0  0  0  0  0  0  0  0  0  0  0  0
   -5.5155    1.4094   -0.4448 C   0  0  0  0  0  0  0  0  0  0  0  0
   -4.4501    0.5503   -0.1786 C   0  0  0  0  0  0  0  0  0  0  0  0
   -3.1406    0.9700   -0.3029 C   0  0  0  0  0  0  0  0  0  0  0  0
   -2.0743    0.1350   -0.0403 C   0  0  0  0  0  0  0  0  0  0  0  0
   -2.3751   -1.2373    0.3600 C   0  0  0  0  0  0  0  0  0  0  0  0
   -2.3272   -2.2650   -0.5878 C   0  0  0  0  0  0  0  0  0  0  0  0
   -2.5827   -3.5754   -0.2834 C   0  0  0  0  0  0  0  0  0  0  0  0
   -2.9047   -3.9211    1.0133 C   0  0  0  0  0  0  0  0  0  0  0  0
   -3.1568   -5.2315    1.2971 F   0  0  0  0  0  0  0  0  0  0  0  0
   -2.9640   -2.9420    1.9781 C   0  0  0  0  0  0  0  0  0  0  0  0
   -2.6994   -1.6122    1.6442 C   0  0  0  0  0  0  0  0  0  0  0  0
  1  2  2  0
  2  3  1  0
  2  4  1  0
  4  5  1  0
  5  6  1  6
  5  7  1  0
  7  8  1  0
  8  9  1  6
  8 10  1  0
 10 11  2  0
 11 12  1  0
 12 13  2  0
 13 14  1  0
 14 15  1  0
 15 16  1  0
 13 17  1  0
 17 18  2  0
 18 19  1  0
 19 20  2  0
 20 21  1  0
 21 22  2  0
 22 23  1  0
 23 24  2  0
 24 25  1  0
 25 26  2  0
 26 27  1  0
 27 28  2  0
 28 29  1  0
 28 30  1  0
 30 31  2  0
 24 12  1  0
 31 25  1  0
 16 14  1  0
 23 18  1  0
M  END
>  <zinc_id>  (1) 
ZINC000001534965

>  <smiles>  (1) 
O=C(O)C[C@H](O)C[C@H](O)/C=C/c1c(C2CC2)nc2ccccc2c1-c1ccc(F)cc1

$$$$
