
     RDKit          3D

 11 10  0  0  0  0  0  0  0  0999 V2000
    4.0444   -1.0311    0.4046 C   0  0  0  0  0  0  0  0  0  0  0  0
    3.1699    0.0788   -0.0692 C   0  0  0  0  0  0  0  0  0  0  0  0
    3.7036    1.1850   -0.2719 O   0  0  0  0  0  0  0  0  0  0  0  0
    1.7853   -0.0560   -0.2976 N   0  0  0  0  0  0  0  0  0  0  0  0
    0.9577    1.0592   -0.7639 C   0  0  0  0  0  0  0  0  0  0  0  0
   -0.4602    0.6173   -0.9140 C   0  0  0  0  0  0  0  0  0  0  0  0
   -0.9706    0.1389    0.4257 C   0  0  0  0  0  0  0  0  0  0  0  0
   -2.6667   -0.4030    0.3049 S   0  0  0  0  0  0  0  0  0  0  0  0
   -2.7769   -1.5764   -0.6338 O   0  0  0  0  0  0  0  0  0  0  0  0
   -3.1191   -0.8682    1.6557 O   0  0  0  0  0  0  0  0  0  0  0  0
   -3.6674    0.8556   -0.2151 O   0  0  0  0  0  0  0  0  0  0  0  0
  1  2  1  0
  2  3  2  0
  2  4  1  0
  4  5  1  0
  5  6  1  0
  6  7  1  0
  7  8  1  0
  8  9  2  0
  8 10  2  0
  8 11  1  0
M  END
>  <zinc_id>  (1) 
ZINC000001554588

>  <smiles>  (1) 
CC(=O)NCCCS(=O)(=O)O

$$$$
