
     RDKit          3D

 15 15  0  0  0  0  0  0  0  0999 V2000
    3.0382   -1.1931   -0.8650 N   0  0  0  0  0  0  0  0  0  0  0  0
    2.9801   -0.9977    0.5268 C   0  0  0  0  0  0  0  0  0  0  0  0
    3.7624   -1.7671    1.4308 N   0  0  0  0  0  0  0  0  0  0  0  0
    2.1996   -0.0984    1.0163 N   0  0  0  0  0  0  0  0  0  0  0  0
    1.4132    0.6794    0.1530 C   0  0  0  0  0  0  0  0  0  0  0  0
    1.9732    1.5957   -0.5004 O   0  0  0  0  0  0  0  0  0  0  0  0
   -0.0314    0.4414    0.0045 C   0  0  0  0  0  0  0  0  0  0  0  0
   -0.6719   -0.5122    0.6703 N   0  0  0  0  0  0  0  0  0  0  0  0
   -1.9940   -0.6965    0.5056 C   0  0  0  0  0  0  0  0  0  0  0  0
   -2.8593   -1.9574    1.3814 Cl  0  0  0  0  0  0  0  0  0  0  0  0
   -2.7345    0.0892   -0.3534 C   0  0  0  0  0  0  0  0  0  0  0  0
   -4.1444   -0.1264   -0.5126 N   0  0  0  0  0  0  0  0  0  0  0  0
   -2.1041    1.0589   -1.0355 N   0  0  0  0  0  0  0  0  0  0  0  0
   -0.7679    1.2298   -0.8558 C   0  0  0  0  0  0  0  0  0  0  0  0
   -0.0592    2.2542   -1.5659 N   0  0  0  0  0  0  0  0  0  0  0  0
  1  2  1  0
  2  3  1  0
  2  4  2  3
  4  5  1  0
  5  6  2  0
  5  7  1  0
  7  8  2  0
  8  9  1  0
  9 10  1  0
  9 11  2  0
 11 12  1  0
 11 13  1  0
 13 14  2  0
 14 15  1  0
 14  7  1  0
M  END
>  <zinc_id>  (1) 
ZINC000004340269

>  <smiles>  (1) 
NC(N)=NC(=O)c1nc(Cl)c(N)nc1N

$$$$
