
     RDKit          3D

 24 28  0  0  0  0  0  0  0  0999 V2000
   -1.2494    1.4444    0.3886 O   0  0  0  0  0  0  0  0  0  0  0  0
   -1.3190    0.6566    0.0052 C   0  0  0  0  0  0  0  0  0  0  0  0
   -0.2138    0.1861   -0.6966 O   0  0  0  0  0  0  0  0  0  0  0  0
    1.0095    0.9007   -0.8271 C   0  0  2  0  0  0  0  0  0  0  0  0
    1.7907   -0.1555   -1.7017 C   0  0  0  0  0  0  0  0  0  0  0  0
    2.5868   -0.5176   -0.3853 C   0  0  1  0  0  0  0  0  0  0  0  0
    3.8222   -1.4451   -0.6614 C   0  0  0  0  0  0  0  0  0  0  0  0
    4.3406   -1.0189    0.7665 C   0  0  2  0  0  0  0  0  0  0  0  0
    3.3785   -0.2118    1.6004 C   0  0  0  0  0  0  0  0  0  0  0  0
    2.9816    1.2088    0.8917 C   0  0  2  0  0  0  0  0  0  0  0  0
    1.3938    1.0163    0.6174 C   0  0  0  0  0  0  0  0  0  0  0  0
    3.4110    0.8382   -0.5394 N   0  0  0  0  0  0  0  0  0  0  0  0
    4.7179    0.7720   -0.7198 C   0  0  0  0  0  0  0  0  0  0  0  0
    5.3889   -0.0109    0.3399 C   0  0  0  0  0  0  0  0  0  0  0  0
    6.4599    0.0669    0.7928 O   0  0  0  0  0  0  0  0  0  0  0  0
   -2.4637   -0.2679   -0.0065 C   0  0  0  0  0  0  0  0  0  0  0  0
   -2.6135   -1.5017   -0.5900 C   0  0  0  0  0  0  0  0  0  0  0  0
   -3.8397   -1.9974   -0.3438 N   0  0  0  0  0  0  0  0  0  0  0  0
   -4.5005   -1.0979    0.3991 C   0  0  0  0  0  0  0  0  0  0  0  0
   -5.7668   -1.0647    0.9385 C   0  0  0  0  0  0  0  0  0  0  0  0
   -6.1799    0.0221    1.6773 C   0  0  0  0  0  0  0  0  0  0  0  0
   -5.3747    1.1115    1.9151 C   0  0  0  0  0  0  0  0  0  0  0  0
   -4.1041    1.0700    1.3696 C   0  0  0  0  0  0  0  0  0  0  0  0
   -3.6566   -0.0042    0.6233 C   0  0  0  0  0  0  0  0  0  0  0  0
  1  2  2  0
  2  3  1  0
  4  3  1  1
  4  5  1  0
  6  5  1  6
  6  7  1  0
  8  7  1  6
  8  9  1  0
  9 10  1  0
 10 11  1  6
 10 12  1  0
 12 13  1  0
 13 14  1  0
 14 15  2  0
  2 16  1  0
 16 17  2  0
 17 18  1  0
 18 19  1  0
 19 20  2  0
 20 21  1  0
 21 22  2  0
 22 23  1  0
 23 24  2  0
 11  4  1  0
 24 16  1  0
 12  6  1  0
 24 19  1  0
 14  8  1  0
M  END
>  <zinc_id>  (1) 
ZINC000000897301

>  <smiles>  (1) 
O=C(OC1C[C@H]2CC3C[C@H](C1)N2CC3=O)c1c[nH]c2ccccc12

$$$$
