
     RDKit          2D

 35 37  0  0  0  0  0  0  0  0999 V2000
    4.4887   -1.7212    0.0000 C   0  0  0  0  0  0  0  0  0  0  0  0
    3.7020   -0.4440    0.0000 C   0  0  0  0  0  0  0  0  0  0  0  0
    4.4148    0.8759    0.0000 C   0  0  0  0  0  0  0  0  0  0  0  0
    5.9142    0.9185    0.0000 C   0  0  0  0  0  0  0  0  0  0  0  0
    6.7610    2.1567    0.0000 C   0  0  0  0  0  0  0  0  0  0  0  0
    8.2002    1.7339    0.0000 S   0  0  0  0  0  0  0  0  0  0  0  0
    8.2428    0.2345    0.0000 C   0  0  0  0  0  0  0  0  0  0  0  0
    9.4809   -0.6123    0.0000 C   0  0  0  0  0  0  0  0  0  0  0  0
    6.8300   -0.2694    0.0000 N   0  0  0  0  0  0  0  0  0  0  0  0
    2.2026   -0.4866    0.0000 C   0  0  0  0  0  0  0  0  0  0  0  0
    1.9520   -1.9656    0.0000 C   0  0  0  0  0  0  0  0  0  0  0  0
    1.1544   -3.2360    0.0000 C   0  0  0  0  0  0  0  0  0  0  0  0
    1.2951   -4.7294    0.0000 O   0  0  0  0  0  0  0  0  0  0  0  0
   -0.0686   -4.1045    0.0000 C   0  0  0  0  0  0  0  0  0  0  0  0
   -0.2220   -5.5966    0.0000 C   0  0  0  0  0  0  0  0  0  0  0  0
   -1.5308   -4.4388    0.0000 C   0  0  0  0  0  0  0  0  0  0  0  0
   -3.0097   -4.1882    0.0000 C   0  0  0  0  0  0  0  0  0  0  0  0
   -4.2801   -3.3906    0.0000 C   0  0  0  0  0  0  0  0  0  0  0  0
   -5.1486   -2.1676    0.0000 C   0  0  0  0  0  0  0  0  0  0  0  0
   -6.5176   -2.7809    0.0000 C   0  0  0  0  0  0  0  0  0  0  0  0
   -5.4830   -0.7054    0.0000 C   0  0  0  0  0  0  0  0  0  0  0  0
   -6.9824   -0.7481    0.0000 O   0  0  0  0  0  0  0  0  0  0  0  0
   -5.2323    0.7735    0.0000 C   0  0  0  0  0  0  0  0  0  0  0  0
   -6.6339    1.3079    0.0000 C   0  0  0  0  0  0  0  0  0  0  0  0
   -4.4348    2.0439    0.0000 C   0  0  0  0  0  0  0  0  0  0  0  0
   -5.5252    3.0740    0.0000 O   0  0  0  0  0  0  0  0  0  0  0  0
   -3.2118    2.9124    0.0000 C   0  0  0  0  0  0  0  0  0  0  0  0
   -2.9611    4.3913    0.0000 C   0  0  0  0  0  0  0  0  0  0  0  0
   -4.4822    3.7100    0.0000 C   0  0  0  0  0  0  0  0  0  0  0  0
   -1.7495    3.2468    0.0000 C   0  0  0  0  0  0  0  0  0  0  0  0
   -1.7922    4.7462    0.0000 O   0  0  0  0  0  0  0  0  0  0  0  0
   -0.2706    2.9961    0.0000 C   0  0  0  0  0  0  0  0  0  0  0  0
    0.9998    2.1986    0.0000 C   0  0  0  0  0  0  0  0  0  0  0  0
    2.0298    3.2890    0.0000 O   0  0  0  0  0  0  0  0  0  0  0  0
    1.8683    0.9756    0.0000 N   0  0  0  0  0  0  0  0  0  0  0  0
  1  2  1  0
  2  3  2  0
  3  4  1  0
  4  5  2  0
  5  6  1  0
  6  7  1  0
  7  8  1  0
  7  9  2  0
 10  2  1  6
 10 11  1  0
 12 11  1  6
 12 13  1  0
 13 14  1  0
 14 15  1  1
 14 16  1  0
 16 17  1  0
 17 18  1  0
 18 19  1  0
 19 20  1  6
 19 21  1  0
 21 22  1  6
 21 23  1  0
 23 24  1  1
 23 25  1  0
 25 26  2  0
 25 27  1  0
 27 28  1  0
 27 29  1  0
 27 30  1  0
 30 31  1  1
 30 32  1  0
 32 33  1  0
 33 34  2  0
 33 35  1  0
  9  4  1  0
 35 10  1  0
 14 12  1  0
M  END
>  <zinc_id>  (1) 
ZINC000003993846

>  <smiles>  (1) 
C/C(=C\c1csc(C)n1)[C@@H]1C[C@@H]2O[C@]2(C)CCC[C@H](C)[C@H](O)[C@@H](C)C(=O)C(C)(C)[C@@H](O)CC(=O)N1

$$$$
