
     RDKit          3D

 25 27  0  0  0  0  0  0  0  0999 V2000
   -2.0132   -2.9308   -1.7248 C   0  0  0  0  0  0  0  0  0  0  0  0
   -1.7978   -1.7972   -0.9423 C   0  0  0  0  0  0  0  0  0  0  0  0
   -2.7112   -1.1548   -0.2439 C   0  0  0  0  0  0  0  0  0  0  0  0
   -4.1536   -1.5560   -0.1844 C   0  0  0  0  0  0  0  0  0  0  0  0
   -5.0596   -0.5308   -0.6997 C   0  0  0  0  0  0  0  0  0  0  0  0
   -5.4165    0.4612   -0.0278 O   0  0  0  0  0  0  0  0  0  0  0  0
   -5.5517   -0.6627   -2.0029 O   0  0  0  0  0  0  0  0  0  0  0  0
   -2.1507   -0.0080    0.4671 C   0  0  0  0  0  0  0  0  0  0  0  0
   -2.6842    0.9373    1.3166 C   0  0  0  0  0  0  0  0  0  0  0  0
   -1.9011    1.9184    1.8718 C   0  0  0  0  0  0  0  0  0  0  0  0
   -2.4166    2.8591    2.7152 F   0  0  0  0  0  0  0  0  0  0  0  0
   -0.5471    1.9301    1.5495 C   0  0  0  0  0  0  0  0  0  0  0  0
   -0.0198    0.9951    0.7086 C   0  0  0  0  0  0  0  0  0  0  0  0
   -0.7948    0.0196    0.1553 C   0  0  0  0  0  0  0  0  0  0  0  0
   -0.5115   -1.0942   -0.7385 C   0  0  0  0  0  0  0  0  0  0  0  0
    0.6285   -1.4772   -1.2446 C   0  0  0  0  0  0  0  0  0  0  0  0
    1.8752   -0.7667   -1.0373 C   0  0  0  0  0  0  0  0  0  0  0  0
    2.1089    0.5354   -1.4111 C   0  0  0  0  0  0  0  0  0  0  0  0
    3.3378    1.0942   -1.1671 C   0  0  0  0  0  0  0  0  0  0  0  0
    4.3596    0.3758   -0.5468 C   0  0  0  0  0  0  0  0  0  0  0  0
    5.9217    1.2160   -0.2835 S   0  0  0  0  0  0  0  0  0  0  0  0
    5.6335    1.9794    1.3778 C   0  0  0  0  0  0  0  0  0  0  0  0
    6.8770    0.0578    0.0932 O   0  0  0  0  0  0  0  0  0  0  0  0
    4.0996   -0.9011   -0.1908 C   0  0  0  0  0  0  0  0  0  0  0  0
    2.8875   -1.4996   -0.4154 C   0  0  0  0  0  0  0  0  0  0  0  0
  1  2  1  0
  2  3  2  0
  3  4  1  0
  4  5  1  0
  5  6  2  0
  5  7  1  0
  3  8  1  0
  8  9  2  0
  9 10  1  0
 10 11  1  0
 10 12  2  0
 12 13  1  0
 13 14  2  0
 14 15  1  0
 15 16  2  0
 16 17  1  0
 17 18  2  0
 18 19  1  0
 19 20  2  0
 20 21  1  0
 21 22  1  1
 21 23  2  0
 20 24  1  0
 24 25  2  0
 15  2  1  0
 25 17  1  0
 14  8  1  0
M  END
>  <zinc_id>  (1) 
ZINC000003786192

>  <smiles>  (1) 
CC1=C(CC(=O)O)c2cc(F)ccc2/C1=C\c1ccc([S@@](C)=O)cc1

$$$$
