
     RDKit          3D

 18 18  0  0  0  0  0  0  0  0999 V2000
   -3.0265    2.8304    1.1159 C   0  0  0  0  0  0  0  0  0  0  0  0
   -3.1260    2.2157    1.0973 O   0  0  0  0  0  0  0  0  0  0  0  0
   -2.6444    0.9510    0.7970 C   0  0  0  0  0  0  0  0  0  0  0  0
   -3.3833   -0.1971    0.9741 C   0  0  0  0  0  0  0  0  0  0  0  0
   -2.8428   -1.4020    0.6565 C   0  0  0  0  0  0  0  0  0  0  0  0
   -1.5730   -1.5335    0.1587 C   0  0  0  0  0  0  0  0  0  0  0  0
   -0.9879   -2.7273   -0.1749 O   0  0  0  0  0  0  0  0  0  0  0  0
   -1.4994   -4.0058   -0.0970 C   0  0  0  0  0  0  0  0  0  0  0  0
   -0.8221   -0.4034   -0.0242 C   0  0  0  0  0  0  0  0  0  0  0  0
    0.6219   -0.4733   -0.6017 C   0  0  2  0  0  0  0  0  0  0  0  0
    1.2828   -1.0104    0.6736 O   0  0  0  0  0  0  0  0  0  0  0  0
    1.0614    1.0584   -0.3161 C   0  0  0  0  0  0  0  0  0  0  0  0
    2.5007    1.0726   -0.2524 N   0  0  0  0  0  0  0  0  0  0  0  0
    3.2476    0.6747   -1.3708 C   0  0  0  0  0  0  0  0  0  0  0  0
    2.6673    0.3203   -2.4050 O   0  0  0  0  0  0  0  0  0  0  0  0
    4.7208    0.6937   -1.2729 C   0  0  0  0  0  0  0  0  0  0  0  0
    5.1453    1.1363    0.0510 N   0  0  0  0  0  0  0  0  0  0  0  0
   -1.3423    0.7998    0.2855 C   0  0  0  0  0  0  0  0  0  0  0  0
  1  2  1  0
  2  3  1  0
  3  4  2  0
  4  5  1  0
  5  6  2  0
  6  7  1  0
  7  8  1  0
  6  9  1  0
  9 10  1  0
 10 11  1  1
 10 12  1  0
 12 13  1  0
 13 14  1  0
 14 15  2  0
 14 16  1  0
 16 17  1  0
  9 18  2  0
 18  3  1  0
M  END
>  <zinc_id>  (1) 
ZINC000000000507

>  <smiles>  (1) 
COc1ccc(OC)c([C@H](O)CNC(=O)CN)c1

$$$$
