
     RDKit          3D

 13 12  0  0  0  0  0  0  0  0999 V2000
    3.3983   -1.5507    0.4041 N   0  0  0  0  0  0  0  0  0  0  0  0
    2.0420   -1.3783   -0.0089 C   0  0  0  0  0  0  0  0  0  0  0  0
    1.5596    0.0523    0.0714 C   0  0  0  0  0  0  0  0  0  0  0  0
    0.1085    0.0659   -0.3990 C   0  0  0  0  0  0  0  0  0  0  0  0
    0.0792   -0.4120   -1.7258 O   0  0  0  0  0  0  0  0  0  0  0  0
   -0.8873   -1.0648    0.5835 P   0  0  0  0  0  0  0  0  0  0  0  0
   -0.3617   -1.1270    2.0081 O   0  0  0  0  0  0  0  0  0  0  0  0
   -2.4790   -0.5470    0.5484 O   0  0  0  0  0  0  0  0  0  0  0  0
   -0.7724   -2.6344   -0.0366 O   0  0  0  0  0  0  0  0  0  0  0  0
   -0.5354    1.7444   -0.4051 P   0  0  0  0  0  0  0  0  0  0  0  0
   -0.4965    2.3177   -1.8193 O   0  0  0  0  0  0  0  0  0  0  0  0
    0.4480    2.6928    0.5987 O   0  0  0  0  0  0  0  0  0  0  0  0
   -2.1033    1.8410    0.1806 O   0  0  0  0  0  0  0  0  0  0  0  0
  1  2  1  0
  2  3  1  0
  3  4  1  0
  4  5  1  0
  4  6  1  0
  6  7  2  0
  6  8  1  0
  6  9  1  0
  4 10  1  0
 10 11  2  0
 10 12  1  0
 10 13  1  0
M  END
>  <zinc_id>  (1) 
ZINC000003812862

>  <smiles>  (1) 
NCCC(O)(P(=O)(O)O)P(=O)(O)O

$$$$
