
     RDKit          3D

 15 16  0  0  0  0  0  0  0  0999 V2000
   -3.4509    1.5125   -0.6791 C   0  0  0  0  0  0  0  0  0  0  0  0
   -3.3287    0.1459   -0.3545 C   0  0  0  0  0  0  0  0  0  0  0  0
   -1.9381   -0.3247   -0.4310 N   0  0  0  0  0  0  0  0  0  0  0  0
   -1.2943   -0.8640   -1.5567 C   0  0  0  0  0  0  0  0  0  0  0  0
   -1.8448   -1.0179   -2.6733 O   0  0  0  0  0  0  0  0  0  0  0  0
    0.0104   -1.1847   -1.2269 N   0  0  0  0  0  0  0  0  0  0  0  0
    0.0640   -1.3696    0.3420 C   0  0  1  0  0  0  0  0  0  0  0  0
    1.2894   -0.3340    0.5321 C   0  0  0  0  0  0  0  0  0  0  0  0
    1.2339    0.8541   -0.0946 C   0  0  0  0  0  0  0  0  0  0  0  0
    2.3047    1.7178    0.0956 C   0  0  0  0  0  0  0  0  0  0  0  0
    3.3847    1.3869    0.8886 C   0  0  0  0  0  0  0  0  0  0  0  0
    3.3527    0.1458    1.4908 C   0  0  0  0  0  0  0  0  0  0  0  0
    2.3052   -0.7392    1.3249 C   0  0  0  0  0  0  0  0  0  0  0  0
   -1.0754   -0.2835    0.6484 C   0  0  0  0  0  0  0  0  0  0  0  0
   -1.0127    0.3547    1.6936 O   0  0  0  0  0  0  0  0  0  0  0  0
  1  2  1  0
  2  3  1  0
  3  4  1  0
  4  5  2  0
  4  6  1  0
  6  7  1  0
  7  8  1  1
  8  9  2  0
  9 10  1  0
 10 11  2  0
 11 12  1  0
 12 13  2  0
  7 14  1  0
 14 15  2  0
 14  3  1  0
 13  8  1  0
M  END
>  <zinc_id>  (1) 
ZINC000000897291

>  <smiles>  (1) 
CCN1C(=O)N[C@@H](c2ccccc2)C1=O

$$$$
