
     RDKit          2D

 30 32  0  0  0  0  0  0  0  0999 V2000
   -4.4678    2.5901    0.0000 C   0  0  0  0  0  0  0  0  0  0  0  0
   -3.5392    1.4121    0.0000 C   0  0  0  0  0  0  0  0  0  0  0  0
   -2.0547    1.6273    0.0000 C   0  0  0  0  0  0  0  0  0  0  0  0
   -2.2699    3.1118    0.0000 C   0  0  0  0  0  0  0  0  0  0  0  0
   -1.8395    0.1428    0.0000 C   0  0  0  0  0  0  0  0  0  0  0  0
   -0.5702    1.8425    0.0000 C   0  0  0  0  0  0  0  0  0  0  0  0
   -0.0144    3.2357    0.0000 O   0  0  0  0  0  0  0  0  0  0  0  0
    0.3584    0.6645    0.0000 O   0  0  0  0  0  0  0  0  0  0  0  0
    1.8429    0.8797    0.0000 C   0  0  0  0  0  0  0  0  0  0  0  0
    2.3987    2.2729    0.0000 C   0  0  0  0  0  0  0  0  0  0  0  0
    3.8832    2.4881    0.0000 C   0  0  0  0  0  0  0  0  0  0  0  0
    4.4391    3.8813    0.0000 C   0  0  0  0  0  0  0  0  0  0  0  0
    4.8118    1.3101    0.0000 C   0  0  0  0  0  0  0  0  0  0  0  0
    4.2559   -0.0831    0.0000 C   0  0  0  0  0  0  0  0  0  0  0  0
    5.1846   -1.2611    0.0000 C   0  0  0  0  0  0  0  0  0  0  0  0
    4.6287   -2.6543    0.0000 C   0  0  0  0  0  0  0  0  0  0  0  0
    3.1442   -2.8695    0.0000 C   0  0  0  0  0  0  0  0  0  0  0  0
    2.5883   -4.2627    0.0000 C   0  0  0  0  0  0  0  0  0  0  0  0
    2.2156   -1.6915    0.0000 C   0  0  0  0  0  0  0  0  0  0  0  0
    0.7311   -1.9067    0.0000 C   0  0  0  0  0  0  0  0  0  0  0  0
   -0.1975   -0.7287    0.0000 C   0  0  0  0  0  0  0  0  0  0  0  0
   -1.6820   -0.9439    0.0000 C   0  0  0  0  0  0  0  0  0  0  0  0
   -2.6106    0.2341    0.0000 C   0  0  0  0  0  0  0  0  0  0  0  0
   -4.0951    0.0189    0.0000 C   0  0  0  0  0  0  0  0  0  0  0  0
   -5.0237    1.1969    0.0000 O   0  0  0  0  0  0  0  0  0  0  0  0
   -4.6509   -1.3743    0.0000 C   0  0  0  0  0  0  0  0  0  0  0  0
   -3.7223   -2.5523    0.0000 C   0  0  0  0  0  0  0  0  0  0  0  0
   -4.2782   -3.9455    0.0000 O   0  0  0  0  0  0  0  0  0  0  0  0
   -2.2379   -2.3371    0.0000 O   0  0  0  0  0  0  0  0  0  0  0  0
    2.7715   -0.2983    0.0000 C   0  0  0  0  0  0  0  0  0  0  0  0
  1  2  1  0
  2  3  1  0
  3  4  1  0
  3  5  1  0
  3  6  1  0
  6  7  2  0
  6  8  1  0
  9  8  1  1
  9 10  1  0
 10 11  1  0
 11 12  1  1
 11 13  1  0
 13 14  2  0
 14 15  1  0
 15 16  2  0
 16 17  1  0
 17 18  1  6
 17 19  1  0
 19 20  1  6
 20 21  1  0
 22 21  1  1
 22 23  1  0
 23 24  1  0
 24 25  1  6
 24 26  1  0
 26 27  1  0
 27 28  2  0
 27 29  1  0
 19 30  1  0
 30  9  1  0
 30 14  1  1
 29 22  1  0
M  END
>  <zinc_id>  (1) 
ZINC000003780893

>  <smiles>  (1) 
CCC(C)(C)C(=O)O[C@H]1C[C@@H](C)C=C2C=C[C@H](C)[C@H](CC[C@@H]3C[C@@H](O)CC(=O)O3)[C@H]21

$$$$
