
     RDKit          3D

 21 23  0  0  0  0  0  0  0  0999 V2000
    5.0182    0.3401   -0.8460 C   0  0  0  0  0  0  0  0  0  0  0  0
    4.1460   -0.3616    0.0780 N   0  0  0  0  0  0  0  0  0  0  0  0
    4.9594   -1.1554    0.9724 C   0  0  0  0  0  0  0  0  0  0  0  0
    3.2251    0.4972    0.7513 C   0  0  0  0  0  0  0  0  0  0  0  0
    2.1677    1.1365    0.0873 C   0  0  0  0  0  0  0  0  0  0  0  0
    1.0209    0.9097   -0.5992 C   0  0  0  0  0  0  0  0  0  0  0  0
   -0.1881    0.3335   -0.2015 N   0  0  0  0  0  0  0  0  0  0  0  0
   -0.3330   -1.0564   -0.0389 C   0  0  0  0  0  0  0  0  0  0  0  0
    0.8486   -1.6915    0.2519 C   0  0  0  0  0  0  0  0  0  0  0  0
    0.8721   -3.0325    0.4424 C   0  0  0  0  0  0  0  0  0  0  0  0
   -0.2864   -3.7870    0.3495 C   0  0  0  0  0  0  0  0  0  0  0  0
   -1.4889   -3.1647    0.0566 C   0  0  0  0  0  0  0  0  0  0  0  0
   -1.5140   -1.7957   -0.1384 C   0  0  0  0  0  0  0  0  0  0  0  0
   -2.8575   -1.2646   -0.4499 C   0  0  0  0  0  0  0  0  0  0  0  0
   -3.3366   -0.1870    0.4552 C   0  0  0  0  0  0  0  0  0  0  0  0
   -2.5523    1.0707    0.3214 C   0  0  0  0  0  0  0  0  0  0  0  0
   -3.3625    2.1671    0.5321 C   0  0  0  0  0  0  0  0  0  0  0  0
   -2.8531    3.4661    0.4607 C   0  0  0  0  0  0  0  0  0  0  0  0
   -1.5280    3.6937    0.1780 C   0  0  0  0  0  0  0  0  0  0  0  0
   -0.7189    2.5742   -0.0327 C   0  0  0  0  0  0  0  0  0  0  0  0
   -1.2388    1.3075    0.0422 C   0  0  0  0  0  0  0  0  0  0  0  0
  1  2  1  0
  2  3  1  0
  2  4  1  0
  4  5  1  0
  5  6  1  0
  6  7  1  0
  7  8  1  0
  8  9  2  0
  9 10  1  0
 10 11  2  0
 11 12  1  0
 12 13  2  0
 13 14  1  0
 14 15  1  0
 15 16  1  0
 16 17  2  0
 17 18  1  0
 18 19  2  0
 19 20  1  0
 20 21  2  0
 21  7  1  0
 13  8  1  0
 21 16  1  0
M  END
>  <zinc_id>  (1) 
ZINC000000020245

>  <smiles>  (1) 
CN(C)CCCN1c2ccccc2CCc2ccccc21

$$$$
