
     RDKit          3D

 19 19  0  0  0  0  0  0  0  0999 V2000
    5.4601   -1.3437    0.7327 O   0  0  0  0  0  0  0  0  0  0  0  0
    4.8730   -0.8196   -0.2620 C   0  0  0  0  0  0  0  0  0  0  0  0
    5.3284   -1.1844   -1.5191 O   0  0  0  0  0  0  0  0  0  0  0  0
    3.7433    0.1464   -0.1089 C   0  0  0  0  0  0  0  0  0  0  0  0
    3.4142    0.4046    1.3255 C   0  0  0  0  0  0  0  0  0  0  0  0
    2.2808    1.3777    1.4144 C   0  0  0  0  0  0  0  0  0  0  0  0
    1.0367    0.8961    0.7494 C   0  0  0  0  0  0  0  0  0  0  0  0
    0.7803    1.1367   -0.5831 C   0  0  0  0  0  0  0  0  0  0  0  0
   -0.3723    0.6930   -1.1980 C   0  0  0  0  0  0  0  0  0  0  0  0
   -1.3338   -0.0180   -0.5071 C   0  0  0  0  0  0  0  0  0  0  0  0
   -2.5154   -0.4968   -1.1224 N   0  0  0  0  0  0  0  0  0  0  0  0
   -3.4335    0.4237   -1.7231 C   0  0  0  0  0  0  0  0  0  0  0  0
   -3.0476    1.8631   -1.6198 C   0  0  0  0  0  0  0  0  0  0  0  0
   -2.9498    2.3373    0.0838 Cl  0  0  0  0  0  0  0  0  0  0  0  0
   -2.8160   -1.9237   -1.1601 C   0  0  0  0  0  0  0  0  0  0  0  0
   -4.0161   -2.1572   -0.2818 C   0  0  0  0  0  0  0  0  0  0  0  0
   -5.4338   -1.2572   -0.8257 Cl  0  0  0  0  0  0  0  0  0  0  0  0
   -1.0759   -0.2614    0.8395 C   0  0  0  0  0  0  0  0  0  0  0  0
    0.0773    0.1833    1.4504 C   0  0  0  0  0  0  0  0  0  0  0  0
  1  2  2  0
  2  3  1  0
  2  4  1  0
  4  5  1  0
  5  6  1  0
  6  7  1  0
  7  8  2  0
  8  9  1  0
  9 10  2  0
 10 11  1  0
 11 12  1  0
 12 13  1  0
 13 14  1  0
 11 15  1  0
 15 16  1  0
 16 17  1  0
 10 18  1  0
 18 19  2  0
 19  7  1  0
M  END
>  <zinc_id>  (1) 
ZINC000000001115

>  <smiles>  (1) 
O=C(O)CCCc1ccc(N(CCCl)CCCl)cc1

$$$$
