
     RDKit          3D

 22 24  0  0  0  0  0  0  0  0999 V2000
    4.8964    0.5243    1.1066 N   0  0  0  0  0  0  0  0  0  0  0  0
    3.8845    1.2351    0.9253 S   0  0  0  0  0  0  0  0  0  0  0  0
    4.0888    2.3811   -0.0678 O   0  0  0  0  0  0  0  0  0  0  0  0
    3.3831    1.9369    2.1821 O   0  0  0  0  0  0  0  0  0  0  0  0
    2.4988    0.3457    0.2841 C   0  0  0  0  0  0  0  0  0  0  0  0
    1.3295    0.2755    0.9791 C   0  0  0  0  0  0  0  0  0  0  0  0
    0.2304   -0.4177    0.5041 C   0  0  0  0  0  0  0  0  0  0  0  0
   -1.0328   -0.4751    1.2867 C   0  0  2  0  0  0  0  0  0  0  0  0
   -0.7984    0.0939    2.5472 O   0  0  0  0  0  0  0  0  0  0  0  0
   -1.4223   -1.8598    1.4324 N   0  0  0  0  0  0  0  0  0  0  0  0
   -2.6923   -2.0060    0.8194 C   0  0  0  0  0  0  0  0  0  0  0  0
   -3.4013   -3.0564    0.7178 O   0  0  0  0  0  0  0  0  0  0  0  0
   -3.1048   -0.7101    0.2862 C   0  0  0  0  0  0  0  0  0  0  0  0
   -4.2592   -0.3193   -0.4011 C   0  0  0  0  0  0  0  0  0  0  0  0
   -4.4116    0.9887   -0.8047 C   0  0  0  0  0  0  0  0  0  0  0  0
   -3.4203    1.9060   -0.5264 C   0  0  0  0  0  0  0  0  0  0  0  0
   -2.2857    1.4890    0.1574 C   0  0  0  0  0  0  0  0  0  0  0  0
   -2.1180    0.1971    0.5647 C   0  0  0  0  0  0  0  0  0  0  0  0
    0.3684   -1.0418   -0.7150 C   0  0  0  0  0  0  0  0  0  0  0  0
    1.5443   -0.9806   -1.4296 C   0  0  0  0  0  0  0  0  0  0  0  0
    2.6287   -0.2836   -0.9382 C   0  0  0  0  0  0  0  0  0  0  0  0
    4.0935   -0.2229   -1.8586 Cl  0  0  0  0  0  0  0  0  0  0  0  0
  1  2  1  0
  2  3  2  0
  2  4  2  0
  2  5  1  0
  5  6  2  0
  6  7  1  0
  7  8  1  0
  8  9  1  1
  8 10  1  0
 10 11  1  0
 11 12  2  0
 11 13  1  0
 13 14  2  0
 14 15  1  0
 15 16  2  0
 16 17  1  0
 17 18  2  0
  7 19  2  0
 19 20  1  0
 20 21  2  0
 21 22  1  0
 21  5  1  0
 18  8  1  0
 18 13  1  0
M  END
>  <zinc_id>  (1) 
ZINC000000020253

>  <smiles>  (1) 
NS(=O)(=O)c1cc([C@]2(O)NC(=O)c3ccccc32)ccc1Cl

$$$$
