
     RDKit          3D

 22 25  0  0  0  0  0  0  0  0999 V2000
   -3.9073   -1.5971   -1.1934 C   0  0  0  0  0  0  0  0  0  0  0  0
   -3.7755   -0.3390   -0.5177 C   0  0  2  0  0  0  0  0  0  0  0  0
   -4.7855   -0.1108    0.4345 O   0  0  0  0  0  0  0  0  0  0  0  0
   -3.8185    0.8635   -1.4559 C   0  0  0  0  0  0  0  0  0  0  0  0
   -2.4170    1.4826   -1.4482 C   0  0  0  0  0  0  0  0  0  0  0  0
   -1.6249    0.0808   -1.1960 C   0  0  1  0  0  0  0  0  0  0  0  0
   -0.3096    0.8022   -0.4029 C   0  0  2  0  0  0  0  0  0  0  0  0
    0.4942    1.0418   -1.7930 C   0  0  0  0  0  0  0  0  0  0  0  0
    1.7976    1.6193   -1.3392 C   0  0  0  0  0  0  0  0  0  0  0  0
    2.4546    0.6374   -0.4329 C   0  0  0  0  0  0  0  0  0  0  0  0
    3.7349    0.4601   -0.5903 C   0  0  0  0  0  0  0  0  0  0  0  0
    4.4467   -0.4804    0.2538 C   0  0  0  0  0  0  0  0  0  0  0  0
    5.5968   -0.2932    0.6971 O   0  0  0  0  0  0  0  0  0  0  0  0
    3.6684   -1.7349    0.5618 C   0  0  0  0  0  0  0  0  0  0  0  0
    2.3916   -1.2755    1.2075 C   0  0  0  0  0  0  0  0  0  0  0  0
    1.7285   -0.1054    0.6036 C   0  0  1  0  0  0  0  0  0  0  0  0
    1.2307    0.8997    1.5914 C   0  0  0  0  0  0  0  0  0  0  0  0
    0.3946   -0.7195   -0.1591 C   0  0  1  0  0  0  0  0  0  0  0  0
   -0.4272   -0.9611    1.2342 C   0  0  0  0  0  0  0  0  0  0  0  0
   -1.8436   -1.2802    0.8022 C   0  0  0  0  0  0  0  0  0  0  0  0
   -2.4689   -0.1354    0.1844 C   0  0  2  0  0  0  0  0  0  0  0  0
   -2.5606    1.1453    0.9046 C   0  0  0  0  0  0  0  0  0  0  0  0
  2  1  1  6
  2  3  1  0
  2  4  1  0
  4  5  1  0
  6  5  1  6
  6  7  1  0
  7  8  1  6
  8  9  1  0
  9 10  1  0
 10 11  2  0
 11 12  1  0
 12 13  2  0
 12 14  1  0
 14 15  1  0
 15 16  1  0
 16 17  1  1
 16 18  1  0
 18 19  1  1
 19 20  1  0
 20 21  1  0
 21 22  1  1
 21  2  1  0
 21  6  1  0
 18  7  1  0
 16 10  1  0
M  END
>  <zinc_id>  (1) 
ZINC000003814422

>  <smiles>  (1) 
C[C@]1(O)CC[C@H]2[C@@H]3CCC4=CC(=O)CC[C@]4(C)[C@H]3CC[C@@]21C

$$$$
