
     RDKit          3D

 41 44  0  0  0  0  0  0  0  0999 V2000
    0.8625    2.6410    1.5399 C   0  0  0  0  0  0  0  0  0  0  0  0
   -0.2353    2.3474    1.3389 C   0  0  0  0  0  0  0  0  0  0  0  0
   -1.1327    2.5116    2.5959 C   0  0  0  0  0  0  0  0  0  0  0  0
   -0.4941    0.9870    0.7553 C   0  0  0  0  0  0  0  0  0  0  0  0
   -1.6514    0.5472    0.1922 C   0  0  0  0  0  0  0  0  0  0  0  0
   -2.9041    1.2754   -0.0680 C   0  0  0  0  0  0  0  0  0  0  0  0
   -3.9071    0.6726   -0.5595 O   0  0  0  0  0  0  0  0  0  0  0  0
   -3.1008    2.6464    0.1886 N   0  0  0  0  0  0  0  0  0  0  0  0
   -4.3015    3.3437   -0.0640 C   0  0  0  0  0  0  0  0  0  0  0  0
   -4.3171    4.7040    0.2469 C   0  0  0  0  0  0  0  0  0  0  0  0
   -5.4620    5.4618    0.0252 C   0  0  0  0  0  0  0  0  0  0  0  0
   -6.5828    4.8537   -0.5055 C   0  0  0  0  0  0  0  0  0  0  0  0
   -6.5694    3.5252   -0.8095 C   0  0  0  0  0  0  0  0  0  0  0  0
   -5.4147    2.7712   -0.5838 C   0  0  0  0  0  0  0  0  0  0  0  0
   -1.4429   -0.7679   -0.1576 C   0  0  0  0  0  0  0  0  0  0  0  0
   -2.4038   -1.6687   -0.7959 C   0  0  0  0  0  0  0  0  0  0  0  0
   -3.3846   -2.3009   -0.0502 C   0  0  0  0  0  0  0  0  0  0  0  0
   -4.2786   -3.1379   -0.6663 C   0  0  0  0  0  0  0  0  0  0  0  0
   -4.2383   -3.3794   -2.0225 C   0  0  0  0  0  0  0  0  0  0  0  0
   -3.2595   -2.7474   -2.7577 C   0  0  0  0  0  0  0  0  0  0  0  0
   -2.3672   -1.9124   -2.1466 C   0  0  0  0  0  0  0  0  0  0  0  0
   -0.1759   -1.0731    0.2018 C   0  0  0  0  0  0  0  0  0  0  0  0
    0.4280   -2.4012   -0.0123 C   0  0  0  0  0  0  0  0  0  0  0  0
   -0.0318   -3.5362    0.5873 C   0  0  0  0  0  0  0  0  0  0  0  0
    0.5989   -4.7358    0.3314 C   0  0  0  0  0  0  0  0  0  0  0  0
    1.6820   -4.8486   -0.5085 C   0  0  0  0  0  0  0  0  0  0  0  0
    2.2904   -6.0359   -0.7475 F   0  0  0  0  0  0  0  0  0  0  0  0
    2.1450   -3.6868   -1.1165 C   0  0  0  0  0  0  0  0  0  0  0  0
    1.5120   -2.4902   -0.8577 C   0  0  0  0  0  0  0  0  0  0  0  0
    0.4036    0.0019    0.7602 N   0  0  0  0  0  0  0  0  0  0  0  0
    1.7342   -0.0304    1.2268 C   0  0  0  0  0  0  0  0  0  0  0  0
    2.8318    0.3008    0.3356 C   0  0  0  0  0  0  0  0  0  0  0  0
    4.2329    0.1666    1.2128 C   0  0  1  0  0  0  0  0  0  0  0  0
    4.0424   -1.3153    1.5499 O   0  0  0  0  0  0  0  0  0  0  0  0
    5.1358   -0.2010   -0.1543 C   0  0  0  0  0  0  0  0  0  0  0  0
    4.8265    1.1935   -0.9813 C   0  0  1  0  0  0  0  0  0  0  0  0
    5.4228    2.0989    0.0701 O   0  0  0  0  0  0  0  0  0  0  0  0
    6.1658    1.0846   -1.9134 C   0  0  0  0  0  0  0  0  0  0  0  0
    7.3478    1.0547   -1.0779 C   0  0  0  0  0  0  0  0  0  0  0  0
    7.4217    1.0443    0.1777 O   0  0  0  0  0  0  0  0  0  0  0  0
    8.5716    1.0354   -1.7343 O   0  0  0  0  0  0  0  0  0  0  0  0
  1  2  1  0
  2  3  1  0
  2  4  1  0
  4  5  2  0
  5  6  1  0
  6  7  2  0
  6  8  1  0
  8  9  1  0
  9 10  2  0
 10 11  1  0
 11 12  2  0
 12 13  1  0
 13 14  2  0
  5 15  1  0
 15 16  1  0
 16 17  2  0
 17 18  1  0
 18 19  2  0
 19 20  1  0
 20 21  2  0
 15 22  2  0
 22 23  1  0
 23 24  2  0
 24 25  1  0
 25 26  2  0
 26 27  1  0
 26 28  1  0
 28 29  2  0
 22 30  1  0
 30 31  1  0
 31 32  1  0
 32 33  1  0
 33 34  1  1
 33 35  1  0
 35 36  1  0
 36 37  1  1
 36 38  1  0
 38 39  1  0
 39 40  2  0
 39 41  1  0
 30  4  1  0
 14  9  1  0
 21 16  1  0
 29 23  1  0
M  END
>  <zinc_id>  (1) 
ZINC000003920719

>  <smiles>  (1) 
CC(C)c1c(C(=O)Nc2ccccc2)c(-c2ccccc2)c(-c2ccc(F)cc2)n1CC[C@@H](O)C[C@@H](O)CC(=O)O

$$$$
