
     RDKit          3D

 24 25  0  0  0  0  0  0  0  0999 V2000
    5.8833   -0.8026    2.8178 C   0  0  0  0  0  0  0  0  0  0  0  0
    6.0983   -0.8905    1.3185 C   0  0  0  0  0  0  0  0  0  0  0  0
    4.8243   -1.2654    0.6321 C   0  0  0  0  0  0  0  0  0  0  0  0
    3.7045   -0.2582    0.8730 C   0  0  0  0  0  0  0  0  0  0  0  0
    4.1486    0.9565    0.3813 O   0  0  0  0  0  0  0  0  0  0  0  0
    3.1525    1.9089    0.5811 C   0  0  0  0  0  0  0  0  0  0  0  0
    1.9227    1.4194   -0.1813 C   0  0  0  0  0  0  0  0  0  0  0  0
    2.2979    1.3235   -1.5104 O   0  0  0  0  0  0  0  0  0  0  0  0
    1.2236    0.8816   -2.2566 C   0  0  0  0  0  0  0  0  0  0  0  0
    0.7939   -0.4712   -1.7715 C   0  0  0  0  0  0  0  0  0  0  0  0
   -0.2827   -0.9504   -2.5105 O   0  0  0  0  0  0  0  0  0  0  0  0
   -1.3547   -0.1036   -2.3779 C   0  0  0  0  0  0  0  0  0  0  0  0
   -1.8523   -0.0328   -0.9797 C   0  0  0  0  0  0  0  0  0  0  0  0
   -1.2213   -0.7877    0.0198 C   0  0  0  0  0  0  0  0  0  0  0  0
   -1.6442   -0.7309    1.3296 C   0  0  0  0  0  0  0  0  0  0  0  0
   -2.7019    0.0663    1.7194 C   0  0  0  0  0  0  0  0  0  0  0  0
   -3.3125    0.7994    0.7361 C   0  0  0  0  0  0  0  0  0  0  0  0
   -2.9081    0.7661   -0.6139 C   0  0  0  0  0  0  0  0  0  0  0  0
   -3.6256    1.5420   -1.6245 C   0  0  0  0  0  0  0  0  0  0  0  0
   -4.6855    0.9088   -2.3958 C   0  0  0  0  0  0  0  0  0  0  0  0
   -4.3866   -0.2743   -3.2368 C   0  0  0  0  0  0  0  0  0  0  0  0
   -2.8758   -0.0985    3.0924 O   0  0  0  0  0  0  0  0  0  0  0  0
   -2.0523   -1.1758    3.5071 C   0  0  0  0  0  0  0  0  0  0  0  0
   -1.1461   -1.4021    2.4509 O   0  0  0  0  0  0  0  0  0  0  0  0
  1  2  1  0
  2  3  1  0
  3  4  1  0
  4  5  1  0
  5  6  1  0
  6  7  1  0
  7  8  1  0
  8  9  1  0
  9 10  1  0
 10 11  1  0
 11 12  1  0
 12 13  1  0
 13 14  2  0
 14 15  1  0
 15 16  2  0
 16 17  1  0
 17 18  2  0
 18 19  1  0
 19 20  1  0
 20 21  1  0
 16 22  1  0
 22 23  1  0
 23 24  1  0
 18 13  1  0
 24 15  1  0
M  END
>  <zinc_id>  (1) 
ZINC000003875342

>  <smiles>  (1) 
CCCCOCCOCCOCc1cc2c(cc1CCC)OCO2

$$$$
