
     RDKit          3D

 11 10  0  0  0  0  0  0  0  0999 V2000
   -2.7652    0.2135   -0.5532 C   0  0  0  0  0  0  0  0  0  0  0  0
   -1.8945   -0.8417   -0.0670 C   0  0  0  0  0  0  0  0  0  0  0  0
   -2.3394   -2.2202   -0.4757 C   0  0  0  0  0  0  0  0  0  0  0  0
   -0.4557   -0.6689   -0.2189 C   0  0  0  0  0  0  0  0  0  0  0  0
    0.0781    0.6207    0.5717 C   0  0  2  0  0  0  0  0  0  0  0  0
   -0.7831    1.7230   -0.2520 C   0  0  0  0  0  0  0  0  0  0  0  0
   -0.4358    2.9898    0.3231 N   0  0  0  0  0  0  0  0  0  0  0  0
    1.4231    0.8007   -0.3942 C   0  0  0  0  0  0  0  0  0  0  0  0
    2.1615   -0.4702   -0.2219 C   0  0  0  0  0  0  0  0  0  0  0  0
    2.8176   -0.6415    0.8316 O   0  0  0  0  0  0  0  0  0  0  0  0
    2.1934   -1.5054   -1.1360 O   0  0  0  0  0  0  0  0  0  0  0  0
  1  2  1  0
  2  3  1  0
  2  4  1  0
  5  4  1  6
  5  6  1  0
  6  7  1  0
  5  8  1  0
  8  9  1  0
  9 10  2  0
  9 11  1  0
M  END
>  <zinc_id>  (1) 
ZINC000000005152

>  <smiles>  (1) 
CC(C)C[C@H](CN)CC(=O)O

$$$$
