
     RDKit          3D

 53 58  0  0  0  0  0  0  0  0999 V2000
    5.2882   -0.8973    3.0405 C   0  0  0  0  0  0  0  0  0  0  0  0
    5.0066    0.5015    2.5380 C   0  0  0  0  0  0  0  0  0  0  0  0
    4.5781    1.3826    3.6912 C   0  0  0  0  0  0  0  0  0  0  0  0
    6.2041    1.0427    1.8743 C   0  0  0  0  0  0  0  0  0  0  0  0
    5.8454    1.2952    0.5577 C   0  0  0  0  0  0  0  0  0  0  0  0
    6.8554    1.8181   -0.2240 C   0  0  0  0  0  0  0  0  0  0  0  0
    8.1198    2.0736    0.2498 C   0  0  0  0  0  0  0  0  0  0  0  0
    8.4650    1.8188    1.5597 C   0  0  0  0  0  0  0  0  0  0  0  0
    9.7289    2.0672    2.0551 C   0  0  0  0  0  0  0  0  0  0  0  0
   10.0424    1.7953    3.3895 C   0  0  0  0  0  0  0  0  0  0  0  0
    9.0589    1.2723    4.2008 C   0  0  0  0  0  0  0  0  0  0  0  0
    7.7998    1.0292    3.6912 C   0  0  0  0  0  0  0  0  0  0  0  0
    7.4848    1.2976    2.3681 C   0  0  0  0  0  0  0  0  0  0  0  0
    4.4883    0.9529    0.3276 N   0  0  0  0  0  0  0  0  0  0  0  0
    3.7238    1.0436   -0.8981 C   0  0  0  0  0  0  0  0  0  0  0  0
    4.0232    0.2305   -2.0198 C   0  0  0  0  0  0  0  0  0  0  0  0
    5.2033    0.2345   -2.8375 C   0  0  0  0  0  0  0  0  0  0  0  0
    5.4505    1.5260   -3.6307 C   0  0  0  0  0  0  0  0  0  0  0  0
    6.9687    1.2037   -4.5444 S   0  0  0  0  0  0  0  0  0  0  0  0
    7.3445    2.3735   -5.3833 O   0  0  0  0  0  0  0  0  0  0  0  0
    6.7516   -0.0221   -5.4249 O   0  0  0  0  0  0  0  0  0  0  0  0
    8.2174    0.8802   -3.4665 O   0  0  0  0  0  0  0  0  0  0  0  0
    3.9571    0.4866    1.4540 C   0  0  0  0  0  0  0  0  0  0  0  0
    2.6531    0.0422    1.7022 C   0  0  0  0  0  0  0  0  0  0  0  0
    1.5212   -0.1809    1.3481 C   0  0  0  0  0  0  0  0  0  0  0  0
    0.8295   -0.0249    0.1123 C   0  0  0  0  0  0  0  0  0  0  0  0
   -0.4499   -0.3816    0.0656 C   0  0  0  0  0  0  0  0  0  0  0  0
   -1.0772   -0.9104    1.2698 C   0  0  0  0  0  0  0  0  0  0  0  0
   -2.3386   -1.2661    1.2325 C   0  0  0  0  0  0  0  0  0  0  0  0
   -3.0851   -1.1290    0.0056 C   0  0  0  0  0  0  0  0  0  0  0  0
   -4.3648   -1.5091    0.0302 C   0  0  0  0  0  0  0  0  0  0  0  0
   -5.2824   -1.4661   -1.0426 N   0  0  0  0  0  0  0  0  0  0  0  0
   -5.0238   -0.9884   -2.4064 C   0  0  0  0  0  0  0  0  0  0  0  0
   -4.8062    0.5063   -2.3538 C   0  0  0  0  0  0  0  0  0  0  0  0
   -4.5406    1.0265   -3.7581 C   0  0  0  0  0  0  0  0  0  0  0  0
   -4.3245    2.5266   -3.7422 C   0  0  0  0  0  0  0  0  0  0  0  0
   -5.7913    3.3128   -3.0882 S   0  0  0  0  0  0  0  0  0  0  0  0
   -5.6296    4.7866   -3.1278 O   0  0  0  0  0  0  0  0  0  0  0  0
   -6.0866    2.8890   -1.6937 O   0  0  0  0  0  0  0  0  0  0  0  0
   -7.0684    2.8967   -4.1066 O   0  0  0  0  0  0  0  0  0  0  0  0
   -6.5503   -1.9581   -0.6127 C   0  0  0  0  0  0  0  0  0  0  0  0
   -7.7722   -2.1247   -1.2503 C   0  0  0  0  0  0  0  0  0  0  0  0
   -8.8531   -2.6294   -0.5722 C   0  0  0  0  0  0  0  0  0  0  0  0
   -8.7189   -2.9733    0.7566 C   0  0  0  0  0  0  0  0  0  0  0  0
   -9.7822   -3.4835    1.4728 C   0  0  0  0  0  0  0  0  0  0  0  0
   -9.6303   -3.8219    2.7998 C   0  0  0  0  0  0  0  0  0  0  0  0
   -8.4384   -3.6761    3.4801 C   0  0  0  0  0  0  0  0  0  0  0  0
   -7.3779   -3.1628    2.7508 C   0  0  0  0  0  0  0  0  0  0  0  0
   -7.5255   -2.8234    1.4228 C   0  0  0  0  0  0  0  0  0  0  0  0
   -6.4458   -2.3069    0.7018 C   0  0  0  0  0  0  0  0  0  0  0  0
   -5.0748   -2.0552    1.1851 C   0  0  0  0  0  0  0  0  0  0  0  0
   -4.5164   -3.3960    1.6266 C   0  0  0  0  0  0  0  0  0  0  0  0
   -5.0550   -1.1252    2.3805 C   0  0  0  0  0  0  0  0  0  0  0  0
  1  2  1  0
  2  3  1  0
  2  4  1  0
  4  5  2  0
  5  6  1  0
  6  7  2  0
  7  8  1  0
  8  9  2  0
  9 10  1  0
 10 11  2  0
 11 12  1  0
 12 13  2  0
  5 14  1  0
 14 15  1  0
 15 16  1  0
 16 17  1  0
 17 18  1  0
 18 19  1  0
 19 20  2  0
 19 21  2  0
 19 22  1  0
 14 23  2  0
 23 24  1  0
 24 25  2  0
 25 26  1  0
 26 27  2  0
 27 28  1  0
 28 29  2  0
 29 30  1  0
 30 31  2  0
 31 32  1  0
 32 33  1  0
 33 34  1  0
 34 35  1  0
 35 36  1  0
 36 37  1  0
 37 38  2  0
 37 39  2  0
 37 40  1  0
 32 41  1  0
 41 42  2  0
 42 43  1  0
 43 44  2  0
 44 45  1  0
 45 46  2  0
 46 47  1  0
 47 48  2  0
 48 49  1  0
 49 50  2  0
 50 51  1  0
 51 52  1  0
 51 53  1  0
 23  2  1  0
 51 31  1  0
 13  4  1  0
 50 41  1  0
 13  8  1  0
 49 44  1  0
M  CHG  1  14   1
M  END
>  <zinc_id>  (1) 
ZINC000008101127

>  <smiles>  (1) 
CC1(C)C(C=C/C=C\C=C/C=C2/N(CCCCS(=O)(=O)O)c3ccc4ccccc4c3C2(C)C)=[N+](CCCCS(=O)(=O)O)c2ccc3ccccc3c21

$$$$
