
     RDKit          3D

 35 37  0  0  0  0  0  0  0  0999 V2000
    0.5879   -1.3669   -1.5793 C   0  0  0  0  0  0  0  0  0  0  0  0
    0.1558    0.2070   -1.8489 C   0  0  2  0  0  0  0  0  0  0  0  0
    0.1046    0.5793   -0.2464 C   0  0  0  0  0  0  0  0  0  0  0  0
    1.4947    0.3245    0.2187 C   0  0  0  0  0  0  0  0  0  0  0  0
    1.8331   -0.8897    0.7583 C   0  0  0  0  0  0  0  0  0  0  0  0
    3.1148   -1.1559    1.1736 C   0  0  0  0  0  0  0  0  0  0  0  0
    4.1059   -0.1736    1.0470 C   0  0  0  0  0  0  0  0  0  0  0  0
    3.8151    1.0437    0.5216 C   0  0  0  0  0  0  0  0  0  0  0  0
    4.7217    2.1424    0.3926 C   0  0  0  0  0  0  0  0  0  0  0  0
    4.3961    3.2934   -0.4353 N   0  0  0  0  0  0  0  0  0  0  0  0
    5.8205    2.2182    0.9455 O   0  0  0  0  0  0  0  0  0  0  0  0
    2.4919    1.2663    0.1125 C   0  0  0  0  0  0  0  0  0  0  0  0
    5.3068   -0.7719    1.5017 N   0  0  0  0  0  0  0  0  0  0  0  0
    6.6350   -0.4465    1.0430 C   0  0  0  0  0  0  0  0  0  0  0  0
    7.1315   -1.6346    0.2354 C   0  0  0  0  0  0  0  0  0  0  0  0
    6.1917   -1.8638   -0.9428 C   0  0  0  0  0  0  0  0  0  0  0  0
    6.6084   -2.9411   -1.7135 O   0  0  0  0  0  0  0  0  0  0  0  0
    4.9542   -1.7985    2.4874 C   0  0  0  0  0  0  0  0  0  0  0  0
    3.6847   -2.3842    1.8073 C   0  0  0  0  0  0  0  0  0  0  0  0
   -1.3846   -0.1300   -1.9623 N   0  0  0  0  0  0  0  0  0  0  0  0
   -1.9633    1.1076   -2.4849 C   0  0  0  0  0  0  0  0  0  0  0  0
   -1.9401    2.1130   -1.3568 C   0  0  0  0  0  0  0  0  0  0  0  0
   -2.7808    1.5226   -0.3302 O   0  0  0  0  0  0  0  0  0  0  0  0
   -4.0932    1.3216   -0.7668 C   0  0  0  0  0  0  0  0  0  0  0  0
   -4.5652    1.6323   -2.0038 C   0  0  0  0  0  0  0  0  0  0  0  0
   -5.8772    1.4221   -2.4152 C   0  0  0  0  0  0  0  0  0  0  0  0
   -6.7174    0.8639   -1.4823 C   0  0  0  0  0  0  0  0  0  0  0  0
   -6.2601    0.5408   -0.2198 C   0  0  0  0  0  0  0  0  0  0  0  0
   -4.9736    0.7565    0.1553 C   0  0  0  0  0  0  0  0  0  0  0  0
   -4.4970    0.4484    1.3965 O   0  0  0  0  0  0  0  0  0  0  0  0
   -5.0633   -0.0897    2.4942 C   0  0  0  0  0  0  0  0  0  0  0  0
   -5.6553   -1.4348    2.5098 C   0  0  0  0  0  0  0  0  0  0  0  0
   -4.6647   -2.3652    2.1752 F   0  0  0  0  0  0  0  0  0  0  0  0
   -5.9306   -1.7070    3.8799 F   0  0  0  0  0  0  0  0  0  0  0  0
   -6.7879   -1.6505    1.7881 F   0  0  0  0  0  0  0  0  0  0  0  0
  2  1  1  1
  2  3  1  0
  3  4  1  0
  4  5  2  0
  5  6  1  0
  6  7  2  0
  7  8  1  0
  8  9  1  0
  9 10  1  0
  9 11  2  0
  8 12  2  0
  7 13  1  0
 13 14  1  0
 14 15  1  0
 15 16  1  0
 16 17  1  0
 13 18  1  0
 18 19  1  0
  2 20  1  0
 20 21  1  0
 21 22  1  0
 22 23  1  0
 23 24  1  0
 24 25  2  0
 25 26  1  0
 26 27  2  0
 27 28  1  0
 28 29  2  0
 29 30  1  0
 30 31  1  0
 31 32  1  0
 32 33  1  0
 32 34  1  0
 32 35  1  0
 12  4  1  0
 29 24  1  0
 19  6  1  0
M  END
>  <zinc_id>  (1) 
ZINC000003806063

>  <smiles>  (1) 
C[C@H](Cc1cc2c(c(C(N)=O)c1)N(CCCO)CC2)NCCOc1ccccc1OCC(F)(F)F

$$$$
