
     RDKit          3D

 15 16  0  0  0  0  0  0  0  0999 V2000
   -3.8871    1.6474   -0.0809 C   0  0  0  0  0  0  0  0  0  0  0  0
   -3.2313    0.8654    0.8674 C   0  0  0  0  0  0  0  0  0  0  0  0
   -2.0679    0.1634    0.3527 N   0  0  0  0  0  0  0  0  0  0  0  0
   -1.9663   -1.1251   -0.2383 C   0  0  0  0  0  0  0  0  0  0  0  0
   -2.9736   -1.8932   -0.4207 O   0  0  0  0  0  0  0  0  0  0  0  0
   -0.6106   -1.3735   -0.5649 N   0  0  0  0  0  0  0  0  0  0  0  0
   -0.1355    0.1062   -0.9519 C   0  0  2  0  0  0  0  0  0  0  0  0
    1.3779   -0.0434   -0.4126 C   0  0  0  0  0  0  0  0  0  0  0  0
    2.0224   -1.2134   -0.5558 C   0  0  0  0  0  0  0  0  0  0  0  0
    3.3223   -1.2482   -0.0979 C   0  0  0  0  0  0  0  0  0  0  0  0
    3.9374   -0.1590    0.4739 C   0  0  0  0  0  0  0  0  0  0  0  0
    3.2332    1.0288    0.6013 C   0  0  0  0  0  0  0  0  0  0  0  0
    1.9349    1.0646    0.1442 C   0  0  0  0  0  0  0  0  0  0  0  0
   -0.7587    0.7205    0.3904 C   0  0  0  0  0  0  0  0  0  0  0  0
   -0.1971    1.4596    1.1776 O   0  0  0  0  0  0  0  0  0  0  0  0
  1  2  1  0
  2  3  1  0
  3  4  1  0
  4  5  2  0
  4  6  1  0
  6  7  1  0
  7  8  1  1
  8  9  2  0
  9 10  1  0
 10 11  2  0
 11 12  1  0
 12 13  2  0
  7 14  1  0
 14 15  2  0
 14  3  1  0
 13  8  1  0
M  END
>  <zinc_id>  (1) 
ZINC000000000271

>  <smiles>  (1) 
CCN1C(=O)N[C@H](c2ccccc2)C1=O

$$$$
