
     RDKit          3D

 22 24  0  0  0  0  0  0  0  0999 V2000
   -0.3469    4.7091   -0.7489 O   0  0  0  0  0  0  0  0  0  0  0  0
   -0.3460    3.5811   -0.2216 C   0  0  0  0  0  0  0  0  0  0  0  0
    0.8017    3.1981    0.6024 C   0  0  0  0  0  0  0  0  0  0  0  0
    1.3088    1.8808    0.4006 N   0  0  0  0  0  0  0  0  0  0  0  0
    0.8120    0.7253    0.1572 C   0  0  0  0  0  0  0  0  0  0  0  0
    1.6949   -0.4174    0.0132 C   0  0  0  0  0  0  0  0  0  0  0  0
    1.2310   -1.6768   -0.2520 C   0  0  0  0  0  0  0  0  0  0  0  0
    2.0660   -2.7466   -0.3851 C   0  0  0  0  0  0  0  0  0  0  0  0
    3.4259   -2.5638   -0.2498 C   0  0  0  0  0  0  0  0  0  0  0  0
    3.8805   -1.3085    0.0139 C   0  0  0  0  0  0  0  0  0  0  0  0
    3.0522   -0.2126    0.1523 C   0  0  0  0  0  0  0  0  0  0  0  0
    3.6428    1.3820    0.4882 Cl  0  0  0  0  0  0  0  0  0  0  0  0
   -0.6307    0.4648    0.0094 C   0  0  0  0  0  0  0  0  0  0  0  0
   -0.9681   -0.8662    0.1896 C   0  0  0  0  0  0  0  0  0  0  0  0
   -2.2579   -1.3465    0.0995 C   0  0  0  0  0  0  0  0  0  0  0  0
   -2.6034   -2.7165    0.2897 N   0  0  0  0  0  0  0  0  0  0  0  0
   -3.7843   -3.0514    0.1847 O   0  0  0  0  0  0  0  0  0  0  0  0
   -1.6586   -3.6519    0.5826 O   0  0  0  0  0  0  0  0  0  0  0  0
   -3.2579   -0.4108   -0.1920 C   0  0  0  0  0  0  0  0  0  0  0  0
   -2.9197    0.9141   -0.3710 C   0  0  0  0  0  0  0  0  0  0  0  0
   -1.6339    1.3634   -0.2758 C   0  0  0  0  0  0  0  0  0  0  0  0
   -1.5083    2.7502   -0.4870 N   0  0  0  0  0  0  0  0  0  0  0  0
  1  2  2  0
  2  3  1  0
  3  4  1  0
  4  5  2  0
  5  6  1  0
  6  7  2  0
  7  8  1  0
  8  9  2  0
  9 10  1  0
 10 11  2  0
 11 12  1  0
  5 13  1  0
 13 14  2  0
 14 15  1  0
 15 16  1  0
 16 17  2  0
 16 18  1  0
 15 19  2  0
 19 20  1  0
 20 21  2  0
 21 22  1  0
 22  2  1  0
 11  6  1  0
 21 13  1  0
M  CHG  2  16   1  18  -1
M  END
>  <zinc_id>  (1) 
ZINC000003813003

>  <smiles>  (1) 
O=C1CN=C(c2ccccc2Cl)c2cc([N+](=O)[O-])ccc2N1

$$$$
