
     RDKit          3D

 28 30  0  0  0  0  0  0  0  0999 V2000
    5.5894    0.1516   -3.8916 C   0  0  0  0  0  0  0  0  0  0  0  0
    5.6739    0.1076   -3.3338 C   0  0  0  0  0  0  0  0  0  0  0  0
    5.8507   -0.1357   -1.9622 O   0  0  0  0  0  0  0  0  0  0  0  0
    4.7945   -0.6051   -1.1807 C   0  0  0  0  0  0  0  0  0  0  0  0
    3.5463   -0.8516   -1.6997 C   0  0  0  0  0  0  0  0  0  0  0  0
    2.4783   -1.3132   -0.9697 C   0  0  0  0  0  0  0  0  0  0  0  0
    2.6078   -1.5680    0.3972 C   0  0  0  0  0  0  0  0  0  0  0  0
    1.5438   -2.0749    1.2464 C   0  0  0  0  0  0  0  0  0  0  0  0
    0.5509   -1.1213    1.7446 C   0  0  0  0  0  0  0  0  0  0  0  0
   -0.6985   -0.9889    1.1027 C   0  0  0  0  0  0  0  0  0  0  0  0
   -1.6340   -0.0922    1.5299 C   0  0  0  0  0  0  0  0  0  0  0  0
   -2.9920   -0.0408    0.7324 C   0  0  2  0  0  0  0  0  0  0  0  0
   -2.3365    0.0071   -0.6399 O   0  0  0  0  0  0  0  0  0  0  0  0
   -3.6340   -0.1492   -1.4523 C   0  0  2  0  0  0  0  0  0  0  0  0
   -2.8009   -0.2538   -2.8723 C   0  0  0  0  0  0  0  0  0  0  0  0
   -3.8803   -0.4062   -3.7609 O   0  0  0  0  0  0  0  0  0  0  0  0
   -3.7719    1.5858   -1.5837 C   0  0  1  0  0  0  0  0  0  0  0  0
   -5.0410    1.4787   -2.3750 O   0  0  0  0  0  0  0  0  0  0  0  0
   -4.6181    1.6030   -0.0802 C   0  0  2  0  0  0  0  0  0  0  0  0
   -4.7740    3.0991   -0.1038 O   0  0  0  0  0  0  0  0  0  0  0  0
   -3.1449    1.7072    0.7799 C   0  0  1  0  0  0  0  0  0  0  0  0
   -3.8477    1.6446    2.1051 O   0  0  0  0  0  0  0  0  0  0  0  0
   -1.3327    0.6640    2.5819 C   0  0  0  0  0  0  0  0  0  0  0  0
   -0.1065    0.5667    3.2498 C   0  0  0  0  0  0  0  0  0  0  0  0
    0.8145   -0.3277    2.8168 C   0  0  0  0  0  0  0  0  0  0  0  0
    2.3756   -0.5138    3.6502 Cl  0  0  0  0  0  0  0  0  0  0  0  0
    3.8595   -1.3183    0.9068 C   0  0  0  0  0  0  0  0  0  0  0  0
    4.9275   -0.8546    0.1664 C   0  0  0  0  0  0  0  0  0  0  0  0
  1  2  1  0
  2  3  1  0
  3  4  1  0
  4  5  2  0
  5  6  1  0
  6  7  2  0
  7  8  1  0
  8  9  1  0
  9 10  2  0
 10 11  1  0
 12 11  1  1
 12 13  1  0
 13 14  1  0
 14 15  1  6
 15 16  1  0
 14 17  1  0
 17 18  1  6
 17 19  1  0
 19 20  1  6
 19 21  1  0
 21 22  1  1
 11 23  2  0
 23 24  1  0
 24 25  2  0
 25 26  1  0
  7 27  1  0
 27 28  2  0
 28  4  1  0
 25  9  1  0
 21 12  1  0
M  END
>  <zinc_id>  (1) 
ZINC000003819138

>  <smiles>  (1) 
CCOc1ccc(Cc2cc([C@@H]3O[C@H](CO)[C@@H](O)[C@H](O)[C@H]3O)ccc2Cl)cc1

$$$$
