
     RDKit          3D

 16 16  0  0  0  0  0  0  0  0999 V2000
    3.3968   -1.6291    0.4518 O   0  0  0  0  0  0  0  0  0  0  0  0
    2.9223   -0.4787    0.3182 N   0  0  0  0  0  0  0  0  0  0  0  0
    3.8051    0.5713    0.3281 O   0  0  0  0  0  0  0  0  0  0  0  0
    1.5305   -0.2670    0.1629 C   0  0  0  0  0  0  0  0  0  0  0  0
    1.0168    1.0040    0.0150 C   0  0  0  0  0  0  0  0  0  0  0  0
   -0.3086    1.2387   -0.1354 C   0  0  0  0  0  0  0  0  0  0  0  0
   -0.7618    2.5809   -0.2821 N   0  0  0  0  0  0  0  0  0  0  0  0
   -0.0427    3.4774   -0.7649 O   0  0  0  0  0  0  0  0  0  0  0  0
   -2.0440    2.8551    0.1364 O   0  0  0  0  0  0  0  0  0  0  0  0
   -1.1901    0.1968   -0.1447 C   0  0  0  0  0  0  0  0  0  0  0  0
   -2.5786    0.4223   -0.3010 O   0  0  0  0  0  0  0  0  0  0  0  0
   -0.7230   -1.0841   -0.0007 C   0  0  0  0  0  0  0  0  0  0  0  0
   -1.6473   -2.1842   -0.0099 N   0  0  0  0  0  0  0  0  0  0  0  0
   -2.6740   -2.1309   -0.6730 O   0  0  0  0  0  0  0  0  0  0  0  0
   -1.3214   -3.2732    0.7490 O   0  0  0  0  0  0  0  0  0  0  0  0
    0.6200   -1.2993    0.1502 C   0  0  0  0  0  0  0  0  0  0  0  0
  1  2  2  0
  2  3  1  0
  2  4  1  0
  4  5  2  0
  5  6  1  0
  6  7  1  0
  7  8  2  0
  7  9  1  0
  6 10  2  0
 10 11  1  0
 10 12  1  0
 12 13  1  0
 13 14  2  0
 13 15  1  0
 12 16  2  0
 16  4  1  0
M  CHG  6   2   1   3  -1   7   1   9  -1  13   1  15  -1
M  END
>  <zinc_id>  (1) 
ZINC000001883067

>  <smiles>  (1) 
O=[N+]([O-])c1cc([N+](=O)[O-])c(O)c([N+](=O)[O-])c1

$$$$
