
     RDKit          3D

 10 10  0  0  0  0  0  0  0  0999 V2000
    1.4330    1.9391    0.1225 C   0  0  0  0  0  0  0  0  0  0  0  0
    0.6773    0.6764    0.0387 C   0  0  0  0  0  0  0  0  0  0  0  0
   -0.7019    0.6878    0.0706 C   0  0  0  0  0  0  0  0  0  0  0  0
   -1.4128    1.8995    0.1833 O   0  0  0  0  0  0  0  0  0  0  0  0
   -1.4266   -0.4834   -0.0065 C   0  0  0  0  0  0  0  0  0  0  0  0
   -2.7031   -0.4684    0.0233 O   0  0  0  0  0  0  0  0  0  0  0  0
   -0.7102   -1.6571   -0.1163 C   0  0  0  0  0  0  0  0  0  0  0  0
    0.6674   -1.6219   -0.1444 C   0  0  0  0  0  0  0  0  0  0  0  0
    1.3544   -0.4663   -0.0676 N   0  0  0  0  0  0  0  0  0  0  0  0
    2.8226   -0.5055   -0.1037 C   0  0  0  0  0  0  0  0  0  0  0  0
  1  2  1  0
  2  3  2  0
  3  4  1  0
  3  5  1  0
  5  6  2  0
  5  7  1  0
  7  8  2  0
  8  9  1  0
  9 10  1  0
  9  2  1  0
M  END
>  <zinc_id>  (1) 
ZINC000000006226

>  <smiles>  (1) 
Cc1c(O)c(=O)ccn1C

$$$$
