
     RDKit          3D

 32 32  0  0  0  0  0  0  0  0999 V2000
    0.0006    6.1361    3.6727 C   0  0  0  0  0  0  0  0  0  0  0  0
    0.0866    4.7950    3.4113 O   0  0  0  0  0  0  0  0  0  0  0  0
   -0.1366    4.6334    2.0456 C   0  0  0  0  0  0  0  0  0  0  0  0
   -0.0592    3.2114    1.6900 C   0  0  0  0  0  0  0  0  0  0  0  0
    0.1770    2.3709    2.5680 O   0  0  0  0  0  0  0  0  0  0  0  0
   -0.2646    2.8429    0.3092 N   0  0  0  0  0  0  0  0  0  0  0  0
   -0.1788    1.4545    0.0205 C   0  0  0  0  0  0  0  0  0  0  0  0
    1.0296    0.9079   -0.3213 C   0  0  0  0  0  0  0  0  0  0  0  0
    2.7099    2.1608   -0.4384 I   0  0  0  0  0  0  0  0  0  0  0  0
    1.1529   -0.4239   -0.6052 C   0  0  0  0  0  0  0  0  0  0  0  0
    2.3776   -1.1120   -0.9526 C   0  0  0  0  0  0  0  0  0  0  0  0
    2.3945   -2.3159   -1.3488 O   0  0  0  0  0  0  0  0  0  0  0  0
    3.6343   -0.4986   -0.8742 N   0  0  0  0  0  0  0  0  0  0  0  0
    4.8605   -1.2528   -1.2490 C   0  0  0  0  0  0  0  0  0  0  0  0
    5.9998   -0.0927   -0.9413 C   0  0  1  0  0  0  0  0  0  0  0  0
    5.6472   -0.0143    0.5524 O   0  0  0  0  0  0  0  0  0  0  0  0
    7.2090   -1.2186   -0.6817 C   0  0  0  0  0  0  0  0  0  0  0  0
    8.0211   -0.4641    0.1695 O   0  0  0  0  0  0  0  0  0  0  0  0
    0.0142   -1.2148   -0.5391 C   0  0  0  0  0  0  0  0  0  0  0  0
    0.1256   -3.2991   -0.9688 I   0  0  0  0  0  0  0  0  0  0  0  0
   -1.2168   -0.7095   -0.2013 C   0  0  0  0  0  0  0  0  0  0  0  0
   -2.3921   -1.6176   -0.1553 C   0  0  0  0  0  0  0  0  0  0  0  0
   -2.5760   -2.1498    0.9500 O   0  0  0  0  0  0  0  0  0  0  0  0
   -3.2069   -1.8557   -1.2489 N   0  0  0  0  0  0  0  0  0  0  0  0
   -2.8017   -1.0976   -2.4786 C   0  0  0  0  0  0  0  0  0  0  0  0
   -4.3225   -2.6658   -1.4390 C   0  0  0  0  0  0  0  0  0  0  0  0
   -5.7460   -1.8981   -1.2633 C   0  0  1  0  0  0  0  0  0  0  0  0
   -6.5050   -3.2359   -1.7120 O   0  0  0  0  0  0  0  0  0  0  0  0
   -6.0148   -2.3257    0.3127 C   0  0  0  0  0  0  0  0  0  0  0  0
   -5.6028   -1.2293    1.0394 O   0  0  0  0  0  0  0  0  0  0  0  0
   -1.3088    0.6299    0.0786 C   0  0  0  0  0  0  0  0  0  0  0  0
   -3.1080    1.5488    0.5989 I   0  0  0  0  0  0  0  0  0  0  0  0
  1  2  1  0
  2  3  1  0
  3  4  1  0
  4  5  2  0
  4  6  1  0
  6  7  1  0
  7  8  2  0
  8  9  1  0
  8 10  1  0
 10 11  1  0
 11 12  2  0
 11 13  1  0
 13 14  1  0
 14 15  1  0
 15 16  1  1
 15 17  1  0
 17 18  1  0
 10 19  2  0
 19 20  1  0
 19 21  1  0
 21 22  1  0
 22 23  2  0
 22 24  1  0
 24 25  1  0
 24 26  1  0
 26 27  1  0
 27 28  1  6
 27 29  1  0
 29 30  1  0
 21 31  2  0
 31 32  1  0
 31  7  1  0
M  END
>  <zinc_id>  (1) 
ZINC000003830960

>  <smiles>  (1) 
COCC(=O)Nc1c(I)c(C(=O)NC[C@@H](O)CO)c(I)c(C(=O)N(C)C[C@@H](O)CO)c1I

$$$$
