
     RDKit          3D

 25 26  0  0  0  0  0  0  0  0999 V2000
    6.5118   -2.1353   -1.4184 C   0  0  0  0  0  0  0  0  0  0  0  0
    6.1647   -1.9749   -1.3782 O   0  0  0  0  0  0  0  0  0  0  0  0
    5.0060   -1.1543   -1.3731 C   0  0  0  0  0  0  0  0  0  0  0  0
    3.8388   -1.5985   -0.7957 C   0  0  0  0  0  0  0  0  0  0  0  0
    2.7446   -0.7625   -0.8177 C   0  0  0  0  0  0  0  0  0  0  0  0
    2.7832    0.4897   -1.3935 C   0  0  0  0  0  0  0  0  0  0  0  0
    1.5352    1.2893   -1.3480 C   0  0  0  0  0  0  0  0  0  0  0  0
    1.6507    2.1763    0.0103 C   0  0  2  0  0  0  0  0  0  0  0  0
    1.7426    0.9099    1.0012 C   0  0  0  0  0  0  0  0  0  0  0  0
    0.1583    2.4859    0.1058 N   0  0  0  0  0  0  0  0  0  0  0  0
   -0.7260    1.5036    0.2680 C   0  0  0  0  0  0  0  0  0  0  0  0
   -0.7335    0.7599    1.7223 C   0  0  1  0  0  0  0  0  0  0  0  0
   -1.0542    1.9768    2.5689 O   0  0  0  0  0  0  0  0  0  0  0  0
   -2.2261    0.2235    1.6511 C   0  0  0  0  0  0  0  0  0  0  0  0
   -2.9425    0.1905    2.8238 C   0  0  0  0  0  0  0  0  0  0  0  0
   -4.2674   -0.2745    2.8421 C   0  0  0  0  0  0  0  0  0  0  0  0
   -4.7875   -0.6853    1.6327 C   0  0  0  0  0  0  0  0  0  0  0  0
   -6.0958   -1.1696    1.5183 O   0  0  0  0  0  0  0  0  0  0  0  0
   -4.0845   -0.6590    0.4494 C   0  0  0  0  0  0  0  0  0  0  0  0
   -4.6753   -1.0947   -0.7607 N   0  0  0  0  0  0  0  0  0  0  0  0
   -3.9790   -1.0752   -1.9879 C   0  0  0  0  0  0  0  0  0  0  0  0
   -2.7840   -0.6356   -1.9177 O   0  0  0  0  0  0  0  0  0  0  0  0
   -2.7844   -0.1879    0.5103 C   0  0  0  0  0  0  0  0  0  0  0  0
    3.9469    0.9143   -1.9612 C   0  0  0  0  0  0  0  0  0  0  0  0
    5.0576    0.0965   -1.9525 C   0  0  0  0  0  0  0  0  0  0  0  0
  1  2  1  0
  2  3  1  0
  3  4  2  0
  4  5  1  0
  5  6  2  0
  6  7  1  0
  7  8  1  0
  8  9  1  1
  8 10  1  0
 10 11  1  0
 11 12  1  0
 12 13  1  1
 12 14  1  0
 14 15  2  0
 15 16  1  0
 16 17  2  0
 17 18  1  0
 17 19  1  0
 19 20  1  0
 20 21  1  0
 21 22  2  0
 19 23  2  0
  6 24  1  0
 24 25  2  0
 25  3  1  0
 23 14  1  0
M  END
>  <zinc_id>  (1) 
ZINC000000000856

>  <smiles>  (1) 
COc1ccc(C[C@H](C)NC[C@@H](O)c2ccc(O)c(NC=O)c2)cc1

$$$$
