
     RDKit          3D

 24 26  0  0  0  0  0  0  0  0999 V2000
   -0.0296   -0.0201    1.3506 C   0  0  0  0  0  0  0  0  0  0  0  0
   -0.2106   -0.6656    0.0990 N   0  0  0  0  0  0  0  0  0  0  0  0
    0.7549   -1.7050   -0.1302 C   0  0  0  0  0  0  0  0  0  0  0  0
    2.0954   -1.0063   -0.1236 C   0  0  0  0  0  0  0  0  0  0  0  0
    2.7637   -0.9649    1.0785 C   0  0  0  0  0  0  0  0  0  0  0  0
    3.9888   -0.3231    1.1388 C   0  0  0  0  0  0  0  0  0  0  0  0
    4.5190    0.2598    0.0093 C   0  0  0  0  0  0  0  0  0  0  0  0
    5.8543    0.9413    0.1643 C   0  0  0  0  0  0  0  0  0  0  0  0
    6.8322   -0.1552    0.5885 C   0  0  0  0  0  0  0  0  0  0  0  0
    6.2985    1.6165   -1.0895 C   0  0  0  0  0  0  0  0  0  0  0  0
    5.6483    1.9480    1.3083 C   0  0  0  0  0  0  0  0  0  0  0  0
    3.8473    0.2078   -1.1599 C   0  0  0  0  0  0  0  0  0  0  0  0
    2.6287   -0.4252   -1.2406 C   0  0  0  0  0  0  0  0  0  0  0  0
   -1.5218   -1.1498   -0.1699 C   0  0  0  0  0  0  0  0  0  0  0  0
   -2.5326   -0.0812   -0.1850 C   0  0  0  0  0  0  0  0  0  0  0  0
   -2.1450    1.2162    0.0309 C   0  0  0  0  0  0  0  0  0  0  0  0
   -3.0970    2.2435    0.0102 C   0  0  0  0  0  0  0  0  0  0  0  0
   -4.4252    1.9681   -0.2250 C   0  0  0  0  0  0  0  0  0  0  0  0
   -4.8046    0.6523   -0.4410 C   0  0  0  0  0  0  0  0  0  0  0  0
   -6.1154    0.3471   -0.6744 C   0  0  0  0  0  0  0  0  0  0  0  0
   -6.5514   -0.9281   -0.8918 C   0  0  0  0  0  0  0  0  0  0  0  0
   -5.6360   -1.9598   -0.8785 C   0  0  0  0  0  0  0  0  0  0  0  0
   -4.3170   -1.6486   -0.6432 C   0  0  0  0  0  0  0  0  0  0  0  0
   -3.8448   -0.3676   -0.4186 C   0  0  0  0  0  0  0  0  0  0  0  0
  1  2  1  0
  2  3  1  0
  3  4  1  0
  4  5  2  0
  5  6  1  0
  6  7  2  0
  7  8  1  0
  8  9  1  0
  8 10  1  0
  8 11  1  0
  7 12  1  0
 12 13  2  0
  2 14  1  0
 14 15  1  0
 15 16  2  0
 16 17  1  0
 17 18  2  0
 18 19  1  0
 19 20  2  0
 20 21  1  0
 21 22  2  0
 22 23  1  0
 23 24  2  0
 13  4  1  0
 24 15  1  0
 24 19  1  0
M  END
>  <zinc_id>  (1) 
ZINC000001530975

>  <smiles>  (1) 
CN(Cc1ccc(C(C)(C)C)cc1)Cc1cccc2ccccc12

$$$$
