
     RDKit          3D

  5  4  0  0  0  0  0  0  0  0999 V2000
    0.0316   -0.2506    1.5251 O   0  0  0  0  0  0  0  0  0  0  0  0
    0.0153    0.0097    0.0383 S   0  0  0  0  0  0  0  0  0  0  0  0
    1.5903    0.1501   -0.5571 O   0  0  0  0  0  0  0  0  0  0  0  0
   -0.8503    1.4046   -0.3089 O   0  0  0  0  0  0  0  0  0  0  0  0
   -0.7869   -1.3138   -0.6974 S   0  0  0  0  0  0  0  0  0  0  0  0
  1  2  2  0
  2  3  1  0
  2  4  1  0
  2  5  2  0
M  END
>  <zinc_id>  (1) 
ZINC000008214573

>  <smiles>  (1) 
O=S(O)(O)=S

$$$$
