
     RDKit          3D

 33 34  0  0  0  0  0  0  0  0999 V2000
   -1.0324   -1.4178   -0.5248 C   0  0  0  0  0  0  0  0  0  0  0  0
   -1.1883   -1.3683   -0.0706 C   0  0  0  0  0  0  0  0  0  0  0  0
   -2.0889   -0.4208    0.2874 C   0  0  0  0  0  0  0  0  0  0  0  0
   -2.6246    0.5060   -0.7434 C   0  0  0  0  0  0  0  0  0  0  0  0
   -4.1125    0.3383   -0.8106 C   0  0  0  0  0  0  0  0  0  0  0  0
   -4.7133   -0.0378   -1.9195 C   0  0  0  0  0  0  0  0  0  0  0  0
   -3.9179   -0.3086   -3.1487 C   0  0  0  0  0  0  0  0  0  0  0  0
   -6.1754   -0.1989   -1.9725 C   0  0  0  0  0  0  0  0  0  0  0  0
   -6.7441   -0.5582   -3.0341 O   0  0  0  0  0  0  0  0  0  0  0  0
   -6.9756    0.0597   -0.7846 C   0  0  0  0  0  0  0  0  0  0  0  0
   -8.3512   -0.0692   -0.7551 C   0  0  0  0  0  0  0  0  0  0  0  0
   -9.0892    0.1803    0.3793 C   0  0  0  0  0  0  0  0  0  0  0  0
   -8.4683    0.5753    1.5474 C   0  0  0  0  0  0  0  0  0  0  0  0
   -7.1006    0.7062    1.5275 C   0  0  0  0  0  0  0  0  0  0  0  0
   -6.3459    0.4537    0.3770 C   0  0  0  0  0  0  0  0  0  0  0  0
   -4.9059    0.6021    0.3934 C   0  0  0  0  0  0  0  0  0  0  0  0
   -4.3119    0.9630    1.4513 O   0  0  0  0  0  0  0  0  0  0  0  0
   -0.6920   -2.2886    1.0691 C   0  0  0  0  0  0  0  0  0  0  0  0
    0.8048   -2.1562    1.2456 C   0  0  0  0  0  0  0  0  0  0  0  0
    1.0516   -0.7056    1.5825 C   0  0  0  0  0  0  0  0  0  0  0  0
    2.6777   -0.5656    1.7735 C   0  0  2  0  0  0  0  0  0  0  0  0
    2.5605    1.0411    2.1080 C   0  0  0  0  0  0  0  0  0  0  0  0
    2.9583   -0.3171    0.2000 C   0  0  0  0  0  0  0  0  0  0  0  0
    4.4547   -0.1708    0.1449 C   0  0  0  0  0  0  0  0  0  0  0  0
    4.9759    0.9454    0.9442 C   0  0  0  0  0  0  0  0  0  0  0  0
    6.5849    1.0158    0.8182 C   0  0  2  0  0  0  0  0  0  0  0  0
    6.5341    1.2228   -0.8112 C   0  0  0  0  0  0  0  0  0  0  0  0
    6.8115   -0.5757    0.7371 C   0  0  0  0  0  0  0  0  0  0  0  0
    8.2975   -0.7267    0.6307 C   0  0  0  0  0  0  0  0  0  0  0  0
    8.8659   -0.0552   -0.5862 C   0  0  0  0  0  0  0  0  0  0  0  0
   10.3486   -0.2103   -0.6853 C   0  0  0  0  0  0  0  0  0  0  0  0
   10.8414    0.4890   -1.9289 C   0  0  0  0  0  0  0  0  0  0  0  0
   11.0707    0.2355    0.5584 C   0  0  0  0  0  0  0  0  0  0  0  0
  1  2  1  0
  2  3  2  0
  3  4  1  0
  4  5  1  0
  5  6  2  0
  6  7  1  0
  6  8  1  0
  8  9  2  0
  8 10  1  0
 10 11  2  0
 11 12  1  0
 12 13  2  0
 13 14  1  0
 14 15  2  0
 15 16  1  0
 16 17  2  0
  2 18  1  0
 18 19  1  0
 19 20  1  0
 20 21  1  0
 21 22  1  1
 21 23  1  0
 23 24  1  0
 24 25  1  0
 25 26  1  0
 26 27  1  6
 26 28  1  0
 28 29  1  0
 29 30  1  0
 30 31  1  0
 31 32  1  0
 31 33  1  0
 16  5  1  0
 15 10  1  0
M  END
>  <zinc_id>  (1) 
ZINC000003831332

>  <smiles>  (1) 
CC1=C(C/C=C(\C)CCC[C@H](C)CCC[C@H](C)CCCC(C)C)C(=O)c2ccccc2C1=O

$$$$
