
     RDKit          3D

 11 11  0  0  0  0  0  0  0  0999 V2000
    3.2413    0.7794   -0.3131 C   0  0  0  0  0  0  0  0  0  0  0  0
    2.9592   -0.0307   -1.1582 N   0  0  0  0  0  0  0  0  0  0  0  0
    1.5952   -0.6953   -0.8766 C   0  0  1  0  0  0  0  0  0  0  0  0
    2.0601   -1.3561    0.5346 C   0  0  0  0  0  0  0  0  0  0  0  0
    0.9209    0.6123   -0.1855 C   0  0  0  0  0  0  0  0  0  0  0  0
   -0.4233    0.1175    0.1404 C   0  0  0  0  0  0  0  0  0  0  0  0
   -1.2395   -0.3429   -0.9945 C   0  0  0  0  0  0  0  0  0  0  0  0
   -2.6077   -0.7914   -0.7140 C   0  0  0  0  0  0  0  0  0  0  0  0
   -3.2118   -0.1760    0.5049 C   0  0  0  0  0  0  0  0  0  0  0  0
   -2.2647   -0.3641    1.6537 C   0  0  0  0  0  0  0  0  0  0  0  0
   -1.0297    0.4554    1.4085 C   0  0  0  0  0  0  0  0  0  0  0  0
  1  2  1  0
  2  3  1  0
  3  4  1  1
  3  5  1  0
  5  6  1  0
  6  7  1  0
  7  8  1  0
  8  9  1  0
  9 10  1  0
 10 11  1  0
 11  6  1  0
M  END
>  <zinc_id>  (1) 
ZINC000001481910

>  <smiles>  (1) 
CN[C@@H](C)CC1CCCCC1

$$$$
