
     RDKit          3D

 34 34  0  0  0  0  0  0  0  0999 V2000
    0.6227    3.4854   -2.2251 C   0  0  0  0  0  0  0  0  0  0  0  0
    0.6353    3.5542   -1.9794 C   0  0  0  0  0  0  0  0  0  0  0  0
    0.8592    4.7861   -2.1597 O   0  0  0  0  0  0  0  0  0  0  0  0
    0.5126    2.8720   -0.7847 N   0  0  0  0  0  0  0  0  0  0  0  0
    0.6601    3.6371    0.4760 C   0  0  0  0  0  0  0  0  0  0  0  0
   -0.8459    4.1310    0.8149 C   0  0  2  0  0  0  0  0  0  0  0  0
   -0.4234    4.9377    2.0517 O   0  0  0  0  0  0  0  0  0  0  0  0
   -1.2250    2.8225    1.7648 C   0  0  0  0  0  0  0  0  0  0  0  0
   -0.1253    2.4766    2.4601 O   0  0  0  0  0  0  0  0  0  0  0  0
    0.2774    1.4811   -0.7596 C   0  0  0  0  0  0  0  0  0  0  0  0
   -0.8967    0.9821   -1.2259 C   0  0  0  0  0  0  0  0  0  0  0  0
   -2.4798    2.1617   -2.0082 I   0  0  0  0  0  0  0  0  0  0  0  0
   -1.0683   -0.4017   -1.1908 C   0  0  0  0  0  0  0  0  0  0  0  0
   -2.3224   -0.9404   -1.6924 C   0  0  0  0  0  0  0  0  0  0  0  0
   -3.2238   -0.1809   -2.1339 O   0  0  0  0  0  0  0  0  0  0  0  0
   -2.4724   -2.3498   -1.6575 N   0  0  0  0  0  0  0  0  0  0  0  0
   -3.6957   -2.9436   -2.1426 C   0  0  0  0  0  0  0  0  0  0  0  0
   -4.8764   -2.3067   -1.1947 C   0  0  2  0  0  0  0  0  0  0  0  0
   -4.2713   -2.8678    0.0773 O   0  0  0  0  0  0  0  0  0  0  0  0
   -5.8579   -3.6234   -1.4133 C   0  0  0  0  0  0  0  0  0  0  0  0
   -6.6491   -3.6758   -0.2986 O   0  0  0  0  0  0  0  0  0  0  0  0
   -0.1085   -1.2636   -0.7091 C   0  0  0  0  0  0  0  0  0  0  0  0
   -0.4643   -3.3647   -0.6967 I   0  0  0  0  0  0  0  0  0  0  0  0
    1.0876   -0.7625   -0.2329 C   0  0  0  0  0  0  0  0  0  0  0  0
    2.0692   -1.6844    0.2585 C   0  0  0  0  0  0  0  0  0  0  0  0
    1.8448   -2.9142    0.1557 O   0  0  0  0  0  0  0  0  0  0  0  0
    3.3079   -1.3407    0.8699 N   0  0  0  0  0  0  0  0  0  0  0  0
    4.2339   -2.3953    1.3275 C   0  0  0  0  0  0  0  0  0  0  0  0
    5.4757   -1.5396    1.9641 C   0  0  2  0  0  0  0  0  0  0  0  0
    6.2604   -2.8141    2.3099 O   0  0  0  0  0  0  0  0  0  0  0  0
    4.8336   -1.5202    3.4966 C   0  0  0  0  0  0  0  0  0  0  0  0
    4.0193   -0.4584    3.6057 O   0  0  0  0  0  0  0  0  0  0  0  0
    1.2555    0.6121   -0.2695 C   0  0  0  0  0  0  0  0  0  0  0  0
    3.0509    1.4084    0.4235 I   0  0  0  0  0  0  0  0  0  0  0  0
  1  2  1  0
  2  3  2  0
  2  4  1  0
  4  5  1  0
  5  6  1  0
  6  7  1  1
  6  8  1  0
  8  9  1  0
  4 10  1  0
 10 11  2  0
 11 12  1  0
 11 13  1  0
 13 14  1  0
 14 15  2  0
 14 16  1  0
 16 17  1  0
 17 18  1  0
 18 19  1  1
 18 20  1  0
 20 21  1  0
 13 22  2  0
 22 23  1  0
 22 24  1  0
 24 25  1  0
 25 26  2  0
 25 27  1  0
 27 28  1  0
 28 29  1  0
 29 30  1  1
 29 31  1  0
 31 32  1  0
 24 33  2  0
 33 34  1  0
 33 10  1  0
M  END
>  <zinc_id>  (1) 
ZINC000003830943

>  <smiles>  (1) 
CC(=O)N(C[C@H](O)CO)c1c(I)c(C(=O)NC[C@H](O)CO)c(I)c(C(=O)NC[C@H](O)CO)c1I

$$$$
