
     RDKit          3D

 23 22  0  0  0  0  0  0  0  0999 V2000
   -8.6421    0.2804    1.3313 C   0  0  0  0  0  0  0  0  0  0  0  0
   -7.4258   -0.3067    2.0420 C   0  0  0  0  0  0  0  0  0  0  0  0
   -6.3944    0.8225    2.1572 C   0  0  0  0  0  0  0  0  0  0  0  0
   -6.0814    1.2513    0.7398 C   0  0  0  0  0  0  0  0  0  0  0  0
   -5.5232    0.1040   -0.0448 C   0  0  0  0  0  0  0  0  0  0  0  0
   -4.2473   -0.3629    0.6420 C   0  0  0  0  0  0  0  0  0  0  0  0
   -3.2466    0.7801    0.6820 C   0  0  0  0  0  0  0  0  0  0  0  0
   -2.9173    1.2322   -0.7275 C   0  0  0  0  0  0  0  0  0  0  0  0
   -1.9298    2.3566   -0.6208 C   0  0  0  0  0  0  0  0  0  0  0  0
   -0.6920    1.8473    0.0848 C   0  0  0  0  0  0  0  0  0  0  0  0
   -0.0437    0.7025   -0.6649 C   0  0  0  0  0  0  0  0  0  0  0  0
    0.3347    1.2347   -2.0405 C   0  0  0  0  0  0  0  0  0  0  0  0
    0.9978    0.1091   -2.8428 C   0  0  0  0  0  0  0  0  0  0  0  0
    2.2274   -0.2974   -2.0403 C   0  0  0  0  0  0  0  0  0  0  0  0
    3.1138    0.8961   -1.9154 C   0  0  0  0  0  0  0  0  0  0  0  0
    4.3455    0.5899   -1.1424 C   0  0  0  0  0  0  0  0  0  0  0  0
    5.2299   -0.4673   -1.6878 C   0  0  0  0  0  0  0  0  0  0  0  0
    4.6289   -1.8005   -1.8168 C   0  0  0  0  0  0  0  0  0  0  0  0
    4.1895   -2.5352   -0.6391 C   0  0  0  0  0  0  0  0  0  0  0  0
    5.1197   -2.9581    0.3901 C   0  0  0  0  0  0  0  0  0  0  0  0
    5.8860   -2.0341    1.1980 C   0  0  0  0  0  0  0  0  0  0  0  0
    5.0729   -1.1282    2.0892 C   0  0  0  0  0  0  0  0  0  0  0  0
    5.9975   -0.3163    2.7832 O   0  0  0  0  0  0  0  0  0  0  0  0
  1  2  1  0
  2  3  1  0
  3  4  1  0
  4  5  1  0
  5  6  1  0
  6  7  1  0
  7  8  1  0
  8  9  1  0
  9 10  1  0
 10 11  1  0
 11 12  1  0
 12 13  1  0
 13 14  1  0
 14 15  1  0
 15 16  1  0
 16 17  1  0
 17 18  1  0
 18 19  1  0
 19 20  1  0
 20 21  1  0
 21 22  1  0
 22 23  1  0
M  END
>  <zinc_id>  (1) 
ZINC000006920384

>  <smiles>  (1) 
CCCCCCCCCCCCCCCCCCCCCCO

$$$$
