
     RDKit          3D

 10  9  0  0  0  0  0  0  0  0999 V2000
   -0.8328    1.4684   -0.1654 N   0  0  0  0  0  0  0  0  0  0  0  0
   -0.6850   -0.0591   -0.5371 C   0  0  1  0  0  0  0  0  0  0  0  0
    0.1376   -0.3918    0.8713 C   0  0  0  0  0  0  0  0  0  0  0  0
    1.3613    0.4950    0.7809 C   0  0  0  0  0  0  0  0  0  0  0  0
    2.2108    0.1946   -0.3786 C   0  0  0  0  0  0  0  0  0  0  0  0
    2.5850   -0.9821   -0.5643 O   0  0  0  0  0  0  0  0  0  0  0  0
    2.6012    1.1894   -1.2645 O   0  0  0  0  0  0  0  0  0  0  0  0
   -2.1034   -0.5052    0.0411 C   0  0  0  0  0  0  0  0  0  0  0  0
   -2.3132   -1.7589   -0.1128 O   0  0  0  0  0  0  0  0  0  0  0  0
   -2.9616    0.3498    0.6176 O   0  0  0  0  0  0  0  0  0  0  0  0
  2  1  1  1
  2  3  1  0
  3  4  1  0
  4  5  1  0
  5  6  2  0
  5  7  1  0
  2  8  1  0
  8  9  2  0
  8 10  1  0
M  END
>  <zinc_id>  (1) 
ZINC000001482113

>  <smiles>  (1) 
N[C@@H](CCC(=O)O)C(=O)O

$$$$
