
     RDKit          3D

 20 21  0  0  0  0  0  0  0  0999 V2000
    5.7701    1.2479    0.4944 C   0  0  0  0  0  0  0  0  0  0  0  0
    4.7645    0.4898   -0.2807 C   0  0  0  0  0  0  0  0  0  0  0  0
    4.9590   -0.6743   -0.5457 O   0  0  0  0  0  0  0  0  0  0  0  0
    3.5042    1.1331   -0.7475 C   0  0  0  0  0  0  0  0  0  0  0  0
    2.6257    0.2064   -1.5083 C   0  0  0  0  0  0  0  0  0  0  0  0
    2.1410   -0.9977   -0.8389 C   0  0  0  0  0  0  0  0  0  0  0  0
    1.2625   -0.9581    0.3253 C   0  0  0  0  0  0  0  0  0  0  0  0
   -0.0346   -0.3682    0.1107 N   0  0  0  0  0  0  0  0  0  0  0  0
   -1.0328   -1.1501   -0.4133 C   0  0  0  0  0  0  0  0  0  0  0  0
   -0.7744   -2.3397   -0.7177 O   0  0  0  0  0  0  0  0  0  0  0  0
   -2.2835   -0.6658   -0.6069 C   0  0  0  0  0  0  0  0  0  0  0  0
   -2.5464    0.6406   -0.2667 C   0  0  0  0  0  0  0  0  0  0  0  0
   -3.8373    0.8324   -0.5643 N   0  0  0  0  0  0  0  0  0  0  0  0
   -4.3543   -0.2985   -1.0654 C   0  0  0  0  0  0  0  0  0  0  0  0
   -3.4076   -1.2431   -1.1014 N   0  0  0  0  0  0  0  0  0  0  0  0
   -3.5257   -2.6300   -1.5728 C   0  0  0  0  0  0  0  0  0  0  0  0
   -1.5864    1.4254    0.2483 N   0  0  0  0  0  0  0  0  0  0  0  0
   -1.8230    2.7909    0.6145 C   0  0  0  0  0  0  0  0  0  0  0  0
   -0.3382    0.8863    0.4245 C   0  0  0  0  0  0  0  0  0  0  0  0
    0.5172    1.6727    0.9166 O   0  0  0  0  0  0  0  0  0  0  0  0
  1  2  1  0
  2  3  2  0
  2  4  1  0
  4  5  1  0
  5  6  1  0
  6  7  1  0
  7  8  1  0
  8  9  1  0
  9 10  2  0
  9 11  1  0
 11 12  2  0
 12 13  1  0
 13 14  2  0
 14 15  1  0
 15 16  1  0
 12 17  1  0
 17 18  1  0
 17 19  1  0
 19 20  2  0
 19  8  1  0
 15 11  1  0
M  END
>  <zinc_id>  (1) 
ZINC000001530776

>  <smiles>  (1) 
CC(=O)CCCCn1c(=O)c2c(ncn2C)n(C)c1=O

$$$$
