
     RDKit          3D

 23 24  0  0  0  0  0  0  0  0999 V2000
   -7.6639    0.6564    0.1596 C   0  0  0  0  0  0  0  0  0  0  0  0
   -6.5669    0.6729    1.0555 O   0  0  0  0  0  0  0  0  0  0  0  0
   -5.3142    0.2502    0.5300 C   0  0  0  0  0  0  0  0  0  0  0  0
   -4.1745    0.2166    1.3192 C   0  0  0  0  0  0  0  0  0  0  0  0
   -2.9785   -0.2131    0.7297 C   0  0  0  0  0  0  0  0  0  0  0  0
   -2.8911   -0.5925   -0.5695 C   0  0  0  0  0  0  0  0  0  0  0  0
   -1.6502   -0.9413   -1.2274 C   0  0  0  0  0  0  0  0  0  0  0  0
   -1.7777   -1.5625   -2.3732 O   0  0  0  0  0  0  0  0  0  0  0  0
   -0.3730   -0.6637   -0.7583 C   0  0  0  0  0  0  0  0  0  0  0  0
    0.2716   -0.8597    0.4839 C   0  0  0  0  0  0  0  0  0  0  0  0
   -0.2574   -1.3968    1.4814 O   0  0  0  0  0  0  0  0  0  0  0  0
    1.6957   -0.3752    0.5666 C   0  0  0  0  0  0  0  0  0  0  0  0
    2.4595   -0.5057    1.6864 C   0  0  0  0  0  0  0  0  0  0  0  0
    3.7882   -0.0429    1.6777 C   0  0  0  0  0  0  0  0  0  0  0  0
    4.3639    0.5409    0.5850 C   0  0  0  0  0  0  0  0  0  0  0  0
    5.7806    1.0411    0.5385 C   0  0  0  0  0  0  0  0  0  0  0  0
    6.7322   -0.0366    1.0044 C   0  0  0  0  0  0  0  0  0  0  0  0
    5.9037    2.3359    1.2731 C   0  0  0  0  0  0  0  0  0  0  0  0
    6.1140    1.2916   -0.9234 C   0  0  0  0  0  0  0  0  0  0  0  0
    3.5585    0.6662   -0.5446 C   0  0  0  0  0  0  0  0  0  0  0  0
    2.2601    0.2136   -0.5461 C   0  0  0  0  0  0  0  0  0  0  0  0
   -4.0435   -0.5600   -1.3557 C   0  0  0  0  0  0  0  0  0  0  0  0
   -5.2372   -0.1354   -0.7922 C   0  0  0  0  0  0  0  0  0  0  0  0
  1  2  1  0
  2  3  1  0
  3  4  2  0
  4  5  1  0
  5  6  2  0
  6  7  1  0
  7  8  2  0
  7  9  1  0
  9 10  1  0
 10 11  2  0
 10 12  1  0
 12 13  2  0
 13 14  1  0
 14 15  2  0
 15 16  1  0
 16 17  1  0
 16 18  1  0
 16 19  1  0
 15 20  1  0
 20 21  2  0
  6 22  1  0
 22 23  2  0
 23  3  1  0
 21 12  1  0
M  END
>  <zinc_id>  (1) 
ZINC000000000973

>  <smiles>  (1) 
COc1ccc(C(=O)CC(=O)c2ccc(C(C)(C)C)cc2)cc1

$$$$
