
     RDKit          3D

 23 24  0  0  0  0  0  0  0  0999 V2000
    4.4866   -1.9148   -2.3202 C   0  0  0  0  0  0  0  0  0  0  0  0
    4.0706   -2.5393   -1.0871 C   0  0  0  0  0  0  0  0  0  0  0  0
    3.8469   -1.5117   -0.0583 N   0  0  0  0  0  0  0  0  0  0  0  0
    5.1898   -0.9759    0.2302 C   0  0  0  0  0  0  0  0  0  0  0  0
    5.1111    0.1053    1.2908 C   0  0  0  0  0  0  0  0  0  0  0  0
    6.4184    0.5627    1.5084 O   0  0  0  0  0  0  0  0  0  0  0  0
    3.1473   -0.3751   -0.6805 C   0  0  0  0  0  0  0  0  0  0  0  0
    1.7508   -0.8142   -1.0508 C   0  0  0  0  0  0  0  0  0  0  0  0
    1.0648   -1.2387    0.2318 C   0  0  0  0  0  0  0  0  0  0  0  0
    1.0946    0.1207    1.1651 C   0  0  2  0  0  0  0  0  0  0  0  0
    0.3256   -0.5854    2.4299 C   0  0  0  0  0  0  0  0  0  0  0  0
   -0.1300    0.7702    0.4960 N   0  0  0  0  0  0  0  0  0  0  0  0
   -1.3581    0.1900    0.3421 C   0  0  0  0  0  0  0  0  0  0  0  0
   -1.5834   -1.1011    0.7341 C   0  0  0  0  0  0  0  0  0  0  0  0
   -2.7956   -1.7450    0.5916 C   0  0  0  0  0  0  0  0  0  0  0  0
   -3.8026   -1.0759    0.0432 N   0  0  0  0  0  0  0  0  0  0  0  0
   -3.6435    0.2097   -0.3673 C   0  0  0  0  0  0  0  0  0  0  0  0
   -4.6970    0.8764   -0.9277 C   0  0  0  0  0  0  0  0  0  0  0  0
   -4.5613    2.1966   -1.3560 C   0  0  0  0  0  0  0  0  0  0  0  0
   -5.9116    3.0496   -2.0726 Cl  0  0  0  0  0  0  0  0  0  0  0  0
   -3.3369    2.7968   -1.1942 C   0  0  0  0  0  0  0  0  0  0  0  0
   -2.2477    2.1510   -0.6304 C   0  0  0  0  0  0  0  0  0  0  0  0
   -2.4389    0.8482   -0.2251 C   0  0  0  0  0  0  0  0  0  0  0  0
  1  2  1  0
  2  3  1  0
  3  4  1  0
  4  5  1  0
  5  6  1  0
  3  7  1  0
  7  8  1  0
  8  9  1  0
  9 10  1  0
 10 11  1  1
 10 12  1  0
 12 13  1  0
 13 14  2  0
 14 15  1  0
 15 16  2  0
 16 17  1  0
 17 18  2  0
 18 19  1  0
 19 20  1  0
 19 21  2  0
 21 22  1  0
 22 23  2  0
 23 13  1  0
 23 17  1  0
M  END
>  <zinc_id>  (1) 
ZINC000001530654

>  <smiles>  (1) 
CCN(CCO)CCC[C@H](C)Nc1ccnc2cc(Cl)ccc12

$$$$
