
     RDKit          3D

 26 28  0  0  0  0  0  0  0  0999 V2000
    2.9355    0.5821    0.5408 O   0  0  0  0  0  0  0  0  0  0  0  0
    3.5172   -0.3083   -0.1116 C   0  0  0  0  0  0  0  0  0  0  0  0
    2.8310   -1.4914   -0.6933 C   0  0  0  0  0  0  0  0  0  0  0  0
    1.3773   -1.4174   -0.3416 C   0  0  0  0  0  0  0  0  0  0  0  0
    0.7438   -0.1997   -0.8649 C   0  0  0  0  0  0  0  0  0  0  0  0
   -0.6597   -0.1044   -0.5372 N   0  0  0  0  0  0  0  0  0  0  0  0
   -0.8543    0.1049    0.9030 C   0  0  0  0  0  0  0  0  0  0  0  0
   -2.2310   -0.3479    1.2540 C   0  0  0  0  0  0  0  0  0  0  0  0
   -3.1400   -0.1743    0.0672 C   0  0  0  0  0  0  0  0  0  0  0  0
   -3.0089   -1.2021   -0.8670 O   0  0  0  0  0  0  0  0  0  0  0  0
   -4.5669   -0.0837    0.4541 C   0  0  0  0  0  0  0  0  0  0  0  0
   -5.4012    0.8480   -0.1273 C   0  0  0  0  0  0  0  0  0  0  0  0
   -6.7659    0.9337    0.2230 C   0  0  0  0  0  0  0  0  0  0  0  0
   -7.3117    0.0857    1.1682 C   0  0  0  0  0  0  0  0  0  0  0  0
   -9.0198    0.2030    1.6247 Cl  0  0  0  0  0  0  0  0  0  0  0  0
   -6.4654   -0.8431    1.7483 C   0  0  0  0  0  0  0  0  0  0  0  0
   -5.1092   -0.9194    1.3856 C   0  0  0  0  0  0  0  0  0  0  0  0
   -2.7213    1.1566   -0.5497 C   0  0  0  0  0  0  0  0  0  0  0  0
   -1.4038    0.8733   -1.2925 C   0  0  0  0  0  0  0  0  0  0  0  0
    4.9680   -0.1914   -0.3186 C   0  0  0  0  0  0  0  0  0  0  0  0
    5.6811    0.8617    0.1905 C   0  0  0  0  0  0  0  0  0  0  0  0
    7.0320    1.0039    0.0226 C   0  0  0  0  0  0  0  0  0  0  0  0
    7.7621    0.0349   -0.7067 C   0  0  0  0  0  0  0  0  0  0  0  0
    9.1121    0.1516   -0.9042 F   0  0  0  0  0  0  0  0  0  0  0  0
    7.0273   -1.0328   -1.2214 C   0  0  0  0  0  0  0  0  0  0  0  0
    5.6718   -1.1589   -1.0459 C   0  0  0  0  0  0  0  0  0  0  0  0
  1  2  2  0
  2  3  1  0
  3  4  1  0
  4  5  1  0
  5  6  1  0
  6  7  1  0
  7  8  1  0
  8  9  1  0
  9 10  1  0
  9 11  1  0
 11 12  2  0
 12 13  1  0
 13 14  2  0
 14 15  1  0
 14 16  1  0
 16 17  2  0
  9 18  1  0
 18 19  1  0
  2 20  1  0
 20 21  2  0
 21 22  1  0
 22 23  2  0
 23 24  1  0
 23 25  1  0
 25 26  2  0
 19  6  1  0
 26 20  1  0
 17 11  1  0
M  END
>  <zinc_id>  (1) 
ZINC000000537822

>  <smiles>  (1) 
O=C(CCCN1CCC(O)(c2ccc(Cl)cc2)CC1)c1ccc(F)cc1

$$$$
