
     RDKit          3D

 15 16  0  0  0  0  0  0  0  0999 V2000
   -3.4810   -0.0944   -1.3545 C   0  0  0  0  0  0  0  0  0  0  0  0
   -2.3321    0.1103   -0.5859 N   0  0  0  0  0  0  0  0  0  0  0  0
   -2.1426    1.1758    0.3335 C   0  0  0  0  0  0  0  0  0  0  0  0
   -2.8314    2.2025    0.4275 O   0  0  0  0  0  0  0  0  0  0  0  0
   -0.9650    0.8669    1.1868 C   0  0  0  0  0  0  0  0  0  0  0  0
   -0.3617   -0.3966    0.6283 C   0  0  2  0  0  0  0  0  0  0  0  0
   -0.5433   -1.4933    1.6364 C   0  0  0  0  0  0  0  0  0  0  0  0
    1.0841   -0.2081    0.2940 C   0  0  0  0  0  0  0  0  0  0  0  0
    2.0977   -0.7728    1.0434 C   0  0  0  0  0  0  0  0  0  0  0  0
    3.4312   -0.5915    0.7244 C   0  0  0  0  0  0  0  0  0  0  0  0
    3.8002    0.1679   -0.3654 C   0  0  0  0  0  0  0  0  0  0  0  0
    2.7945    0.7353   -1.1190 C   0  0  0  0  0  0  0  0  0  0  0  0
    1.4642    0.5487   -0.7926 C   0  0  0  0  0  0  0  0  0  0  0  0
   -1.1570   -0.7103   -0.5908 C   0  0  0  0  0  0  0  0  0  0  0  0
   -0.8579   -1.5406   -1.4661 O   0  0  0  0  0  0  0  0  0  0  0  0
  1  2  1  0
  2  3  1  0
  3  4  2  0
  3  5  1  0
  5  6  1  0
  6  7  1  1
  6  8  1  0
  8  9  2  0
  9 10  1  0
 10 11  2  0
 11 12  1  0
 12 13  2  0
  6 14  1  0
 14 15  2  0
 14  2  1  0
 13  8  1  0
M  END
>  <zinc_id>  (1) 
ZINC000000014257

>  <smiles>  (1) 
CN1C(=O)C[C@](C)(c2ccccc2)C1=O

$$$$
