
     RDKit          3D

 29 30  0  0  0  0  0  0  0  0999 V2000
   -1.5468   -1.6030   -2.0196 C   0  0  0  0  0  0  0  0  0  0  0  0
   -1.3291   -0.8590   -0.7241 C   0  0  1  0  0  0  0  0  0  0  0  0
   -2.1114    0.2784   -0.7074 O   0  0  0  0  0  0  0  0  0  0  0  0
   -1.6643   -1.7001    0.4757 C   0  0  0  0  0  0  0  0  0  0  0  0
   -3.3318   -2.2112    0.4248 S   0  0  0  0  0  0  0  0  0  0  0  0
   -3.5691   -3.0217   -0.8402 O   0  0  0  0  0  0  0  0  0  0  0  0
   -3.6808   -3.0977    1.6070 O   0  0  0  0  0  0  0  0  0  0  0  0
   -4.5000   -0.9295    0.4093 C   0  0  0  0  0  0  0  0  0  0  0  0
   -5.0701   -0.4304   -0.7558 C   0  0  0  0  0  0  0  0  0  0  0  0
   -5.9970    0.5877   -0.7580 C   0  0  0  0  0  0  0  0  0  0  0  0
   -6.4049    1.1647    0.4225 C   0  0  0  0  0  0  0  0  0  0  0  0
   -7.3127    2.1656    0.4545 F   0  0  0  0  0  0  0  0  0  0  0  0
   -5.8483    0.6797    1.5811 C   0  0  0  0  0  0  0  0  0  0  0  0
   -4.9244   -0.3335    1.5969 C   0  0  0  0  0  0  0  0  0  0  0  0
    0.1315   -0.5001   -0.5751 C   0  0  0  0  0  0  0  0  0  0  0  0
    1.0020   -1.4062   -0.5676 O   0  0  0  0  0  0  0  0  0  0  0  0
    0.5683    0.8378   -0.4414 N   0  0  0  0  0  0  0  0  0  0  0  0
    1.9606    1.1702   -0.3002 C   0  0  0  0  0  0  0  0  0  0  0  0
    2.3746    2.4783   -0.1705 C   0  0  0  0  0  0  0  0  0  0  0  0
    3.7194    2.8233   -0.0324 C   0  0  0  0  0  0  0  0  0  0  0  0
    4.6629    1.8086   -0.0265 C   0  0  0  0  0  0  0  0  0  0  0  0
    6.0442    2.1681    0.1158 C   0  0  0  0  0  0  0  0  0  0  0  0
    7.1532    2.4705    0.2302 N   0  0  0  0  0  0  0  0  0  0  0  0
    4.2768    0.4903   -0.1545 C   0  0  0  0  0  0  0  0  0  0  0  0
    5.3368   -0.5572   -0.1412 C   0  0  0  0  0  0  0  0  0  0  0  0
    4.7914   -1.8128   -0.2781 F   0  0  0  0  0  0  0  0  0  0  0  0
    6.0450   -0.5439    1.0577 F   0  0  0  0  0  0  0  0  0  0  0  0
    6.2904   -0.3104   -1.1337 F   0  0  0  0  0  0  0  0  0  0  0  0
    2.9336    0.1936   -0.2890 C   0  0  0  0  0  0  0  0  0  0  0  0
  2  1  1  6
  2  3  1  0
  2  4  1  0
  4  5  1  0
  5  6  2  0
  5  7  2  0
  5  8  1  0
  8  9  2  0
  9 10  1  0
 10 11  2  0
 11 12  1  0
 11 13  1  0
 13 14  2  0
  2 15  1  0
 15 16  2  0
 15 17  1  0
 17 18  1  0
 18 19  2  0
 19 20  1  0
 20 21  2  0
 21 22  1  0
 22 23  3  0
 21 24  1  0
 24 25  1  0
 25 26  1  0
 25 27  1  0
 25 28  1  0
 24 29  2  0
 14  8  1  0
 29 18  1  0
M  END
>  <zinc_id>  (1) 
ZINC000000897408

>  <smiles>  (1) 
C[C@@](O)(CS(=O)(=O)c1ccc(F)cc1)C(=O)Nc1ccc(C#N)c(C(F)(F)F)c1

$$$$
