
     RDKit          3D

  8  7  0  0  0  0  0  0  0  0999 V2000
    0.0188   -0.6112    1.6434 N   0  0  0  0  0  0  0  0  0  0  0  0
   -0.0693   -0.0312    0.3213 C   0  0  0  0  0  0  0  0  0  0  0  0
    0.8212   -0.7288   -0.6806 C   0  0  0  0  0  0  0  0  0  0  0  0
    2.1654   -0.6698   -0.3077 O   0  0  0  0  0  0  0  0  0  0  0  0
   -1.4847   -0.0712   -0.2293 C   0  0  0  0  0  0  0  0  0  0  0  0
   -1.9607   -1.3816   -0.3258 O   0  0  0  0  0  0  0  0  0  0  0  0
    0.2937    1.4542    0.4244 C   0  0  0  0  0  0  0  0  0  0  0  0
    0.2156    2.0396   -0.8456 O   0  0  0  0  0  0  0  0  0  0  0  0
  1  2  1  0
  2  3  1  0
  3  4  1  0
  2  5  1  0
  5  6  1  0
  2  7  1  0
  7  8  1  0
M  END
>  <zinc_id>  (1) 
ZINC000000896695

>  <smiles>  (1) 
NC(CO)(CO)CO

$$$$
