
     RDKit          3D

  4  3  0  0  0  0  0  0  0  0999 V2000
   -0.6536    1.2201    0.0003 N   0  0  0  0  0  0  0  0  0  0  0  0
    0.0528   -0.0070   -0.0000 C   0  0  0  0  0  0  0  0  0  0  0  0
   -0.7094   -1.2025    0.0001 N   0  0  0  0  0  0  0  0  0  0  0  0
    1.3102   -0.0107   -0.0005 O   0  0  0  0  0  0  0  0  0  0  0  0
  1  2  1  0
  2  3  1  0
  2  4  2  0
M  END
>  <zinc_id>  (1) 
ZINC000008214514

>  <smiles>  (1) 
NC(N)=O

$$$$
