
     RDKit          3D

 20 22  0  0  0  0  0  0  0  0999 V2000
    2.5665   -1.2382    2.2002 N   0  0  0  0  0  0  0  0  0  0  0  0
    2.8050   -0.7343    1.1859 C   0  0  0  0  0  0  0  0  0  0  0  0
    4.1179   -0.5682    0.7166 C   0  0  0  0  0  0  0  0  0  0  0  0
    4.4155    0.0342   -0.4965 C   0  0  0  0  0  0  0  0  0  0  0  0
    3.4261    0.5068   -1.3145 C   0  0  0  0  0  0  0  0  0  0  0  0
    2.1286    0.3644   -0.8940 C   0  0  0  0  0  0  0  0  0  0  0  0
    1.8368   -0.2476    0.3380 C   0  0  0  0  0  0  0  0  0  0  0  0
    0.3830   -0.2345    0.4654 C   0  0  0  0  0  0  0  0  0  0  0  0
   -0.2878   -0.6900    1.4302 O   0  0  0  0  0  0  0  0  0  0  0  0
   -0.1441    0.3717   -0.6684 N   0  0  0  0  0  0  0  0  0  0  0  0
   -1.6515    0.6154   -0.9911 C   0  0  1  0  0  0  0  0  0  0  0  0
   -2.0696   -0.9619   -0.8839 C   0  0  0  0  0  0  0  0  0  0  0  0
   -3.5930   -0.9488   -0.8967 C   0  0  0  0  0  0  0  0  0  0  0  0
   -3.9743   -0.5836    0.4933 C   0  0  0  0  0  0  0  0  0  0  0  0
   -4.9449   -1.1445    1.0165 O   0  0  0  0  0  0  0  0  0  0  0  0
   -3.1509    0.4120    1.1039 N   0  0  0  0  0  0  0  0  0  0  0  0
   -2.0868    1.0251    0.4524 C   0  0  0  0  0  0  0  0  0  0  0  0
   -1.4201    1.9201    0.9502 O   0  0  0  0  0  0  0  0  0  0  0  0
    0.8920    0.7665   -1.5529 C   0  0  0  0  0  0  0  0  0  0  0  0
    0.7515    1.3355   -2.6547 O   0  0  0  0  0  0  0  0  0  0  0  0
  1  2  1  0
  2  3  2  0
  3  4  1  0
  4  5  2  0
  5  6  1  0
  6  7  2  0
  7  8  1  0
  8  9  2  0
  8 10  1  0
 11 10  1  1
 11 12  1  0
 12 13  1  0
 13 14  1  0
 14 15  2  0
 14 16  1  0
 16 17  1  0
 17 18  2  0
 10 19  1  0
 19 20  2  0
  7  2  1  0
 17 11  1  0
 19  6  1  0
M  END
>  <zinc_id>  (1) 
ZINC000003940470

>  <smiles>  (1) 
Nc1cccc2c1C(=O)N([C@H]1CCC(=O)NC1=O)C2=O

$$$$
