
     RDKit          3D

  9  8  0  0  0  0  0  0  0  0999 V2000
    1.9223    1.5589   -0.1455 N   0  0  0  0  0  0  0  0  0  0  0  0
    2.9348    0.5330   -0.2440 C   0  0  0  0  0  0  0  0  0  0  0  0
    2.4087   -0.6689   -0.9689 C   0  0  0  0  0  0  0  0  0  0  0  0
    1.2305   -1.2823   -0.2742 C   0  0  0  0  0  0  0  0  0  0  0  0
    0.0935   -0.3272   -0.1576 C   0  0  0  0  0  0  0  0  0  0  0  0
   -1.0988   -0.9263    0.5328 C   0  0  0  0  0  0  0  0  0  0  0  0
   -2.1625    0.0865    0.6035 C   0  0  0  0  0  0  0  0  0  0  0  0
   -2.1425    0.9627    1.4846 O   0  0  0  0  0  0  0  0  0  0  0  0
   -3.1860    0.0636   -0.3136 O   0  0  0  0  0  0  0  0  0  0  0  0
  1  2  1  0
  2  3  1  0
  3  4  1  0
  4  5  1  0
  5  6  1  0
  6  7  1  0
  7  8  2  0
  7  9  1  0
M  END
>  <zinc_id>  (1) 
ZINC000001529425

>  <smiles>  (1) 
NCCCCCC(=O)O

$$$$
