
     RDKit          3D

 22 25  0  0  0  0  0  0  0  0999 V2000
    2.6814    1.7898    1.2606 C   0  0  0  0  0  0  0  0  0  0  0  0
    3.4427    0.7860    0.8378 C   0  0  0  0  0  0  0  0  0  0  0  0
    4.7901    0.9546    0.6255 N   0  0  0  0  0  0  0  0  0  0  0  0
    5.3489   -0.2004    0.2348 C   0  0  0  0  0  0  0  0  0  0  0  0
    4.3548   -1.1419    0.1891 C   0  0  0  0  0  0  0  0  0  0  0  0
    3.2082   -0.4951    0.5641 N   0  0  0  0  0  0  0  0  0  0  0  0
    1.9337   -1.1540    0.6059 C   0  0  0  0  0  0  0  0  0  0  0  0
    1.3209   -1.2164   -0.8877 C   0  0  2  0  0  0  0  0  0  0  0  0
    1.2619    0.3780   -1.1389 C   0  0  0  0  0  0  0  0  0  0  0  0
    0.1077    0.6508   -2.0428 C   0  0  0  0  0  0  0  0  0  0  0  0
   -1.1002    0.5948   -1.1492 C   0  0  0  0  0  0  0  0  0  0  0  0
   -1.1738   -0.5045   -0.3620 C   0  0  0  0  0  0  0  0  0  0  0  0
   -2.3334   -0.4030    0.3857 C   0  0  0  0  0  0  0  0  0  0  0  0
   -2.9247   -1.2167    1.3434 C   0  0  0  0  0  0  0  0  0  0  0  0
   -4.1124   -0.8809    1.9520 C   0  0  0  0  0  0  0  0  0  0  0  0
   -4.6970    0.3126    1.5653 C   0  0  0  0  0  0  0  0  0  0  0  0
   -4.1263    1.1203    0.6261 C   0  0  0  0  0  0  0  0  0  0  0  0
   -2.9172    0.7817    0.0043 C   0  0  0  0  0  0  0  0  0  0  0  0
   -2.1539    1.3720   -0.9275 N   0  0  0  0  0  0  0  0  0  0  0  0
   -2.3986    2.6267   -1.5942 C   0  0  0  0  0  0  0  0  0  0  0  0
   -0.1637   -1.4784   -0.4209 C   0  0  0  0  0  0  0  0  0  0  0  0
   -0.3489   -2.6757   -0.1000 O   0  0  0  0  0  0  0  0  0  0  0  0
  1  2  1  0
  2  3  2  0
  3  4  1  0
  4  5  2  0
  5  6  1  0
  6  7  1  0
  8  7  1  1
  8  9  1  0
  9 10  1  0
 10 11  1  0
 11 12  2  0
 12 13  1  0
 13 14  2  0
 14 15  1  0
 15 16  2  0
 16 17  1  0
 17 18  2  0
 18 19  1  0
 19 20  1  0
 12 21  1  0
 21 22  2  0
  6  2  1  0
 21  8  1  0
 19 11  1  0
 18 13  1  0
M  END
>  <zinc_id>  (1) 
ZINC000000075126

>  <smiles>  (1) 
Cc1nccn1C[C@@H]1CCc2c(c3ccccc3n2C)C1=O

$$$$
