
     RDKit          3D

 39 43  0  0  0  0  0  0  0  0999 V2000
   -8.1684    5.0176    0.6455 C   0  0  0  0  0  0  0  0  0  0  0  0
   -7.8368    3.6279    0.2609 C   0  0  0  0  0  0  0  0  0  0  0  0
   -6.6553    2.9279    0.5163 C   0  0  0  0  0  0  0  0  0  0  0  0
   -6.7374    1.6907    0.0131 N   0  0  0  0  0  0  0  0  0  0  0  0
   -5.8450    0.5901    0.0018 C   0  0  0  0  0  0  0  0  0  0  0  0
   -4.5124    0.6585   -0.3132 C   0  0  0  0  0  0  0  0  0  0  0  0
   -3.7143   -0.4442   -0.3311 C   0  0  0  0  0  0  0  0  0  0  0  0
   -2.3595   -0.5583   -0.6923 N   0  0  0  0  0  0  0  0  0  0  0  0
   -1.1917   -0.5650    0.0657 C   0  0  0  0  0  0  0  0  0  0  0  0
   -1.2642   -0.4121    1.2907 O   0  0  0  0  0  0  0  0  0  0  0  0
    0.1418   -0.7630   -0.5463 C   0  0  0  0  0  0  0  0  0  0  0  0
    0.0563   -1.5022   -1.7794 C   0  0  0  0  0  0  0  0  0  0  0  0
    1.1809   -1.8062   -2.4835 C   0  0  0  0  0  0  0  0  0  0  0  0
    2.4004   -1.4076   -2.0091 C   0  0  0  0  0  0  0  0  0  0  0  0
    3.6655   -1.7733   -2.7470 C   0  0  0  0  0  0  0  0  0  0  0  0
    2.5235   -0.6823   -0.7985 C   0  0  0  0  0  0  0  0  0  0  0  0
    3.7531   -0.3231   -0.4317 N   0  0  0  0  0  0  0  0  0  0  0  0
    4.6778    0.1987    0.3932 C   0  0  0  0  0  0  0  0  0  0  0  0
    4.3916    0.6849    1.6108 N   0  0  0  0  0  0  0  0  0  0  0  0
    5.3140    1.1795    2.4234 C   0  0  0  0  0  0  0  0  0  0  0  0
    6.6402    1.2214    2.0501 C   0  0  0  0  0  0  0  0  0  0  0  0
    6.9600    0.7437    0.8248 C   0  0  0  0  0  0  0  0  0  0  0  0
    8.3682    0.8401    0.3754 C   0  0  0  0  0  0  0  0  0  0  0  0
    8.5912    0.5389   -0.9762 C   0  0  0  0  0  0  0  0  0  0  0  0
    9.8692    0.5628   -1.4632 C   0  0  0  0  0  0  0  0  0  0  0  0
   10.8910    0.8944   -0.5671 C   0  0  0  0  0  0  0  0  0  0  0  0
   10.6353    1.1734    0.7161 N   0  0  0  0  0  0  0  0  0  0  0  0
    9.4038    1.1579    1.2179 C   0  0  0  0  0  0  0  0  0  0  0  0
    6.0163    0.2641    0.0597 N   0  0  0  0  0  0  0  0  0  0  0  0
    1.3280   -0.3896   -0.1108 C   0  0  0  0  0  0  0  0  0  0  0  0
   -4.3252   -1.6749   -0.0121 C   0  0  0  0  0  0  0  0  0  0  0  0
   -5.6417   -1.7992    0.3036 C   0  0  0  0  0  0  0  0  0  0  0  0
   -6.2471   -3.1631    0.5808 C   0  0  0  0  0  0  0  0  0  0  0  0
   -6.3170   -3.3376    1.9353 F   0  0  0  0  0  0  0  0  0  0  0  0
   -5.4537   -4.0757   -0.0370 F   0  0  0  0  0  0  0  0  0  0  0  0
   -7.5286   -3.0715    0.0365 F   0  0  0  0  0  0  0  0  0  0  0  0
   -6.4025   -0.6564    0.3107 C   0  0  0  0  0  0  0  0  0  0  0  0
   -7.9927    1.6367   -0.5569 C   0  0  0  0  0  0  0  0  0  0  0  0
   -8.6144    2.7960   -0.3944 N   0  0  0  0  0  0  0  0  0  0  0  0
  1  2  1  0
  2  3  2  0
  3  4  1  0
  4  5  1  0
  5  6  2  0
  6  7  1  0
  7  8  1  0
  8  9  1  0
  9 10  2  0
  9 11  1  0
 11 12  2  0
 12 13  1  0
 13 14  2  0
 14 15  1  0
 14 16  1  0
 16 17  1  0
 17 18  1  0
 18 19  2  0
 19 20  1  0
 20 21  2  0
 21 22  1  0
 22 23  1  0
 23 24  2  0
 24 25  1  0
 25 26  2  0
 26 27  1  0
 27 28  2  0
 22 29  2  0
 16 30  2  0
  7 31  2  0
 31 32  1  0
 32 33  1  0
 33 34  1  0
 33 35  1  0
 33 36  1  0
 32 37  2  0
  4 38  1  0
 38 39  2  0
 39  2  1  0
 37  5  1  0
 30 11  1  0
 29 18  1  0
 28 23  1  0
M  END
>  <zinc_id>  (1) 
ZINC000006716957

>  <smiles>  (1) 
Cc1cn(-c2cc(NC(=O)c3ccc(C)c(Nc4nccc(-c5cccnc5)n4)c3)cc(C(F)(F)F)c2)cn1

$$$$
