
     RDKit          3D

 16 17  0  0  0  0  0  0  0  0999 V2000
   -2.6904    2.5063   -0.7209 C   0  0  0  0  0  0  0  0  0  0  0  0
   -2.4398    1.3074   -0.3256 C   0  0  0  0  0  0  0  0  0  0  0  0
   -3.5071    0.4572   -0.0267 C   0  0  0  0  0  0  0  0  0  0  0  0
   -3.2910   -0.8386    0.4014 C   0  0  0  0  0  0  0  0  0  0  0  0
   -4.4507   -1.7368    0.7176 C   0  0  0  0  0  0  0  0  0  0  0  0
   -2.0210   -1.3216    0.5433 C   0  0  0  0  0  0  0  0  0  0  0  0
   -0.9072   -0.4945    0.2514 C   0  0  0  0  0  0  0  0  0  0  0  0
    0.2691   -1.0808    0.4299 O   0  0  0  0  0  0  0  0  0  0  0  0
    1.5986   -0.9488    0.3639 C   0  0  0  0  0  0  0  0  0  0  0  0
    1.9512   -0.6243   -1.1804 C   0  0  1  0  0  0  0  0  0  0  0  0
    1.8757    1.0272   -1.0041 C   0  0  0  0  0  0  0  0  0  0  0  0
    2.7419    1.1566    0.1281 N   0  0  0  0  0  0  0  0  0  0  0  0
    3.7753    0.2282   -0.0229 C   0  0  0  0  0  0  0  0  0  0  0  0
    4.8128    0.2171    0.6746 O   0  0  0  0  0  0  0  0  0  0  0  0
    3.4746   -0.6235   -1.0142 O   0  0  0  0  0  0  0  0  0  0  0  0
   -1.1921    0.7690   -0.1649 C   0  0  0  0  0  0  0  0  0  0  0  0
  1  2  1  0
  2  3  2  0
  3  4  1  0
  4  5  1  0
  4  6  2  0
  6  7  1  0
  7  8  1  0
  8  9  1  0
 10  9  1  1
 10 11  1  0
 11 12  1  0
 12 13  1  0
 13 14  2  0
 13 15  1  0
  7 16  2  0
 16  2  1  0
 15 10  1  0
M  END
>  <zinc_id>  (1) 
ZINC000000000471

>  <smiles>  (1) 
Cc1cc(C)cc(OC[C@H]2CNC(=O)O2)c1

$$$$
