
     RDKit          3D

 20 22  0  0  0  0  0  0  0  0999 V2000
    5.1151   -2.0200   -0.0733 C   0  0  0  0  0  0  0  0  0  0  0  0
    3.8608   -1.7642   -0.7795 N   0  0  0  0  0  0  0  0  0  0  0  0
    3.5319   -0.3790   -0.6193 C   0  0  0  0  0  0  0  0  0  0  0  0
    2.2531   -0.0235   -1.3144 C   0  0  0  0  0  0  0  0  0  0  0  0
    1.0814   -0.7598   -0.8433 C   0  0  0  0  0  0  0  0  0  0  0  0
    0.0066   -0.2164   -0.3183 C   0  0  0  0  0  0  0  0  0  0  0  0
   -1.0570   -1.1278    0.0909 C   0  0  0  0  0  0  0  0  0  0  0  0
   -0.7328   -2.4226   -0.1582 C   0  0  0  0  0  0  0  0  0  0  0  0
   -1.6624   -3.4055    0.1846 C   0  0  0  0  0  0  0  0  0  0  0  0
   -2.8656   -3.0955    0.7534 C   0  0  0  0  0  0  0  0  0  0  0  0
   -3.1536   -1.7580    0.9895 C   0  0  0  0  0  0  0  0  0  0  0  0
   -2.2727   -0.7508    0.6706 C   0  0  0  0  0  0  0  0  0  0  0  0
   -2.8230    0.5594    1.0232 C   0  0  0  0  0  0  0  0  0  0  0  0
   -1.8355    1.5066    1.6202 C   0  0  0  0  0  0  0  0  0  0  0  0
   -0.8119    2.0018    0.6422 C   0  0  0  0  0  0  0  0  0  0  0  0
   -0.7140    3.3866    0.6417 C   0  0  0  0  0  0  0  0  0  0  0  0
    0.1936    3.9674   -0.2101 C   0  0  0  0  0  0  0  0  0  0  0  0
    0.9873    3.2161   -1.0420 C   0  0  0  0  0  0  0  0  0  0  0  0
    0.9064    1.8257   -1.0586 C   0  0  0  0  0  0  0  0  0  0  0  0
   -0.0077    1.2596   -0.1995 C   0  0  0  0  0  0  0  0  0  0  0  0
  1  2  1  0
  2  3  1  0
  3  4  1  0
  4  5  1  0
  5  6  2  3
  6  7  1  0
  7  8  2  0
  8  9  1  0
  9 10  2  0
 10 11  1  0
 11 12  2  0
 12 13  1  0
 13 14  1  0
 14 15  1  0
 15 16  2  0
 16 17  1  0
 17 18  2  0
 18 19  1  0
 19 20  2  0
 20  6  1  0
 12  7  1  0
 20 15  1  0
M  END
>  <zinc_id>  (1) 
ZINC000001530741

>  <smiles>  (1) 
CNCCC=C1c2ccccc2CCc2ccccc21

$$$$
