
     RDKit          3D

  8  7  0  0  0  0  0  0  0  0999 V2000
   -1.9946    1.1283   -1.0455 C   0  0  0  0  0  0  0  0  0  0  0  0
   -0.9631    0.1945   -0.6454 N   0  0  0  0  0  0  0  0  0  0  0  0
   -1.5593   -0.6581    0.3676 C   0  0  0  0  0  0  0  0  0  0  0  0
   -0.5784   -0.5576   -1.8314 C   0  0  0  0  0  0  0  0  0  0  0  0
    0.1597    0.8575   -0.0240 C   0  0  0  0  0  0  0  0  0  0  0  0
    1.3173   -0.0230    0.1686 C   0  0  0  0  0  0  0  0  0  0  0  0
    2.3677    0.3972    0.6903 O   0  0  0  0  0  0  0  0  0  0  0  0
    1.2507   -1.3388   -0.2314 O   0  0  0  0  0  0  0  0  0  0  0  0
  1  2  1  0
  2  3  1  0
  2  4  1  0
  2  5  1  0
  5  6  1  0
  6  7  2  0
  6  8  1  0
M  CHG  1   2   1
M  END
>  <zinc_id>  (1) 
ZINC000001532728

>  <smiles>  (1) 
C[N+](C)(C)CC(=O)O

$$$$
