
     RDKit          3D

  7  6  0  0  0  0  0  0  0  0999 V2000
    0.6586    1.4881   -0.0169 N   0  0  0  0  0  0  0  0  0  0  0  0
    0.3053    0.1540   -0.7597 C   0  0  1  0  0  0  0  0  0  0  0  0
    1.1082   -0.7853    0.3567 C   0  0  0  0  0  0  0  0  0  0  0  0
    2.4094   -0.2920    0.2587 O   0  0  0  0  0  0  0  0  0  0  0  0
   -1.1245   -0.0642   -0.0749 C   0  0  0  0  0  0  0  0  0  0  0  0
   -1.5671    0.7173    0.7420 O   0  0  0  0  0  0  0  0  0  0  0  0
   -1.7899   -1.2179   -0.5059 O   0  0  0  0  0  0  0  0  0  0  0  0
  2  1  1  1
  2  3  1  0
  3  4  1  0
  2  5  1  0
  5  6  2  0
  5  7  1  0
M  END
>  <zinc_id>  (1) 
ZINC000000895034

>  <smiles>  (1) 
N[C@@H](CO)C(=O)O

$$$$
