
     RDKit          2D

 33 35  0  0  0  0  0  0  0  0999 V2000
   -0.7389   -4.2354    0.0000 C   0  0  0  0  0  0  0  0  0  0  0  0
   -1.6222   -3.0231    0.0000 N   0  0  0  0  0  0  0  0  0  0  0  0
   -3.1138   -3.1819    0.0000 C   0  0  0  0  0  0  0  0  0  0  0  0
   -3.7220   -4.5531    0.0000 C   0  0  0  0  0  0  0  0  0  0  0  0
   -3.9972   -1.9696    0.0000 C   0  0  0  0  0  0  0  0  0  0  0  0
   -5.4887   -2.1285    0.0000 C   0  0  0  0  0  0  0  0  0  0  0  0
   -6.3721   -0.9162    0.0000 C   0  0  0  0  0  0  0  0  0  0  0  0
   -5.7639    0.4550    0.0000 C   0  0  0  0  0  0  0  0  0  0  0  0
   -6.6472    1.6673    0.0000 N   0  0  0  0  0  0  0  0  0  0  0  0
   -4.2723    0.6138    0.0000 C   0  0  0  0  0  0  0  0  0  0  0  0
   -3.6641    1.9850    0.0000 O   0  0  0  0  0  0  0  0  0  0  0  0
   -2.1726    2.1439    0.0000 C   0  0  0  0  0  0  0  0  0  0  0  0
   -1.2892    0.9316    0.0000 C   0  0  0  0  0  0  0  0  0  0  0  0
   -1.8974   -0.4396    0.0000 O   0  0  0  0  0  0  0  0  0  0  0  0
    0.2024    1.0904    0.0000 C   0  0  0  0  0  0  0  0  0  0  0  0
    1.0857   -0.1219    0.0000 O   0  0  0  0  0  0  0  0  0  0  0  0
    2.5773    0.0370    0.0000 C   0  0  0  0  0  0  0  0  0  0  0  0
    3.1855    1.4081    0.0000 O   0  0  0  0  0  0  0  0  0  0  0  0
    4.6771    1.5670    0.0000 C   0  0  0  0  0  0  0  0  0  0  0  0
    5.5604    0.3547    0.0000 C   0  0  0  0  0  0  0  0  0  0  0  0
    6.8051   -0.4824    0.0000 C   0  0  0  0  0  0  0  0  0  0  0  0
    6.6009    1.4352    0.0000 O   0  0  0  0  0  0  0  0  0  0  0  0
    4.9522   -1.0165    0.0000 C   0  0  0  0  0  0  0  0  0  0  0  0
    5.8356   -2.2288    0.0000 N   0  0  0  0  0  0  0  0  0  0  0  0
    7.3272   -2.0699    0.0000 C   0  0  0  0  0  0  0  0  0  0  0  0
    3.4607   -1.1753    0.0000 C   0  0  0  0  0  0  0  0  0  0  0  0
    2.8525   -2.5465    0.0000 O   0  0  0  0  0  0  0  0  0  0  0  0
    0.8106    2.4616    0.0000 C   0  0  0  0  0  0  0  0  0  0  0  0
    2.3021    2.6204    0.0000 N   0  0  0  0  0  0  0  0  0  0  0  0
   -0.0728    3.6739    0.0000 C   0  0  0  0  0  0  0  0  0  0  0  0
   -1.5643    3.5150    0.0000 C   0  0  0  0  0  0  0  0  0  0  0  0
   -2.4477    4.7273    0.0000 N   0  0  0  0  0  0  0  0  0  0  0  0
   -3.3890   -0.5985    0.0000 O   0  0  0  0  0  0  0  0  0  0  0  0
  1  2  1  0
  2  3  1  0
  3  4  1  1
  3  5  1  0
  5  6  1  6
  6  7  1  0
  7  8  1  0
  8  9  1  1
  8 10  1  0
 10 11  1  1
 12 11  1  6
 12 13  1  0
 13 14  1  6
 13 15  1  0
 15 16  1  1
 17 16  1  6
 17 18  1  0
 18 19  1  0
 19 20  1  0
 20 21  1  6
 20 22  1  0
 20 23  1  0
 23 24  1  1
 24 25  1  0
 23 26  1  0
 26 27  1  6
 15 28  1  0
 28 29  1  1
 28 30  1  0
 30 31  1  0
 31 32  1  1
 10 33  1  0
 33  5  1  0
 31 12  1  0
 26 17  1  0
M  END
>  <zinc_id>  (1) 
ZINC000008551177

>  <smiles>  (1) 
CN[C@@H](C)[C@@H]1CC[C@@H](N)[C@@H](O[C@@H]2[C@@H](N)C[C@@H](N)[C@@H](O[C@@H]3OC[C@@](C)(O)[C@@H](NC)[C@@H]3O)[C@@H]2O)O1

$$$$
