
     RDKit          3D

 22 24  0  0  0  0  0  0  0  0999 V2000
    3.1089    2.2392    0.3312 C   0  0  0  0  0  0  0  0  0  0  0  0
    1.6105    1.9013   -0.2535 C   0  0  1  0  0  0  0  0  0  0  0  0
    2.1536    0.9188   -1.4457 C   0  0  0  0  0  0  0  0  0  0  0  0
    2.8455   -0.1677   -1.0341 N   0  0  0  0  0  0  0  0  0  0  0  0
    4.1311   -0.0782   -0.4351 C   0  0  0  0  0  0  0  0  0  0  0  0
    2.5507   -1.4476   -1.6203 C   0  0  0  0  0  0  0  0  0  0  0  0
    1.3302    0.7209    0.7751 C   0  0  0  0  0  0  0  0  0  0  0  0
    0.0097    0.2213    0.5220 N   0  0  0  0  0  0  0  0  0  0  0  0
   -0.2521   -1.1082    1.0392 C   0  0  0  0  0  0  0  0  0  0  0  0
    0.5356   -1.3929    2.1138 C   0  0  0  0  0  0  0  0  0  0  0  0
    0.4041   -2.6532    2.7200 C   0  0  0  0  0  0  0  0  0  0  0  0
   -0.5149   -3.5234    2.1883 C   0  0  0  0  0  0  0  0  0  0  0  0
   -1.3069   -3.2237    1.0998 C   0  0  0  0  0  0  0  0  0  0  0  0
   -1.1670   -1.9928    0.5209 C   0  0  0  0  0  0  0  0  0  0  0  0
   -2.0674   -1.7742   -0.6458 C   0  0  0  0  0  0  0  0  0  0  0  0
   -2.9452   -0.5790   -0.4644 C   0  0  0  0  0  0  0  0  0  0  0  0
   -2.2236    0.6976   -0.5980 C   0  0  0  0  0  0  0  0  0  0  0  0
   -3.0060    1.6704   -1.2421 C   0  0  0  0  0  0  0  0  0  0  0  0
   -2.5252    2.9411   -1.4377 C   0  0  0  0  0  0  0  0  0  0  0  0
   -1.2520    3.2636   -0.9925 C   0  0  0  0  0  0  0  0  0  0  0  0
   -0.4795    2.3296   -0.3656 C   0  0  0  0  0  0  0  0  0  0  0  0
   -0.9400    1.0372   -0.1551 C   0  0  0  0  0  0  0  0  0  0  0  0
  2  1  1  1
  2  3  1  0
  3  4  1  0
  4  5  1  0
  4  6  1  0
  2  7  1  0
  7  8  1  0
  8  9  1  0
  9 10  2  0
 10 11  1  0
 11 12  2  0
 12 13  1  0
 13 14  2  0
 14 15  1  0
 15 16  1  0
 16 17  1  0
 17 18  2  0
 18 19  1  0
 19 20  2  0
 20 21  1  0
 21 22  2  0
 22  8  1  0
 14  9  1  0
 22 17  1  0
M  END
>  <zinc_id>  (1) 
ZINC000003831586

>  <smiles>  (1) 
C[C@@H](CN(C)C)CN1c2ccccc2CCc2ccccc21

$$$$
