
     RDKit          3D

 26 28  0  0  0  0  0  0  0  0999 V2000
    0.7406    0.2680    2.7218 C   0  0  0  0  0  0  0  0  0  0  0  0
    0.8928    0.0331    1.3925 C   0  0  0  0  0  0  0  0  0  0  0  0
    2.2247    0.1076    0.8415 C   0  0  0  0  0  0  0  0  0  0  0  0
    2.5556    0.2481   -0.4827 C   0  0  0  0  0  0  0  0  0  0  0  0
    3.8579    0.3078   -0.9279 C   0  0  0  0  0  0  0  0  0  0  0  0
    4.9225    0.2290   -0.0590 C   0  0  0  0  0  0  0  0  0  0  0  0
    6.2846    0.2950   -0.5591 C   0  0  0  0  0  0  0  0  0  0  0  0
    6.4886    0.4247   -1.7931 O   0  0  0  0  0  0  0  0  0  0  0  0
    7.3983    0.2226    0.2535 O   0  0  0  0  0  0  0  0  0  0  0  0
    4.6160    0.0877    1.2757 C   0  0  0  0  0  0  0  0  0  0  0  0
    3.3159    0.0284    1.7178 C   0  0  0  0  0  0  0  0  0  0  0  0
   -0.3428   -0.2408    0.6728 C   0  0  0  0  0  0  0  0  0  0  0  0
   -1.4745    0.5609    0.9111 C   0  0  0  0  0  0  0  0  0  0  0  0
   -2.6832    0.3821    0.3240 C   0  0  0  0  0  0  0  0  0  0  0  0
   -2.8494   -0.6469   -0.5734 C   0  0  0  0  0  0  0  0  0  0  0  0
   -1.7704   -1.4581   -0.8378 C   0  0  0  0  0  0  0  0  0  0  0  0
   -0.5230   -1.2647   -0.2238 C   0  0  0  0  0  0  0  0  0  0  0  0
    0.5857   -2.2120   -0.5342 C   0  0  0  0  0  0  0  0  0  0  0  0
   -4.1647   -0.8778   -1.2428 C   0  0  0  0  0  0  0  0  0  0  0  0
   -4.4056   -2.3220   -1.5436 C   0  0  0  0  0  0  0  0  0  0  0  0
   -4.1791   -0.0737   -2.5493 C   0  0  0  0  0  0  0  0  0  0  0  0
   -5.2662   -0.2767   -0.3824 C   0  0  0  0  0  0  0  0  0  0  0  0
   -4.9390    1.2172   -0.2776 C   0  0  0  0  0  0  0  0  0  0  0  0
   -3.7831    1.3259    0.6894 C   0  0  0  0  0  0  0  0  0  0  0  0
   -4.2824    0.9081    2.0571 C   0  0  0  0  0  0  0  0  0  0  0  0
   -3.2198    2.7265    0.7283 C   0  0  0  0  0  0  0  0  0  0  0  0
  1  2  2  0
  2  3  1  0
  3  4  2  0
  4  5  1  0
  5  6  2  0
  6  7  1  0
  7  8  2  0
  7  9  1  0
  6 10  1  0
 10 11  2  0
  2 12  1  0
 12 13  2  0
 13 14  1  0
 14 15  2  0
 15 16  1  0
 16 17  2  0
 17 18  1  0
 15 19  1  0
 19 20  1  0
 19 21  1  0
 19 22  1  0
 22 23  1  0
 23 24  1  0
 24 25  1  0
 24 26  1  0
 11  3  1  0
 17 12  1  0
 24 14  1  0
M  END
>  <zinc_id>  (1) 
ZINC000001539579

>  <smiles>  (1) 
C=C(c1ccc(C(=O)O)cc1)c1cc2c(cc1C)C(C)(C)CCC2(C)C

$$$$
