
     RDKit          3D

 17 18  0  0  0  0  0  0  0  0999 V2000
    3.7159    1.6099   -1.1142 C   0  0  0  0  0  0  0  0  0  0  0  0
    3.6998    0.5540    0.1688 C   0  0  1  0  0  0  0  0  0  0  0  0
    3.9691    1.6707    1.1693 O   0  0  0  0  0  0  0  0  0  0  0  0
    1.9832    0.6769    0.3597 C   0  0  2  0  0  0  0  0  0  0  0  0
    2.0573    0.3494    1.8188 O   0  0  0  0  0  0  0  0  0  0  0  0
    1.7333   -0.9623   -0.1165 C   0  0  2  0  0  0  0  0  0  0  0  0
    1.0928   -0.5557   -1.5677 C   0  0  0  0  0  0  0  0  0  0  0  0
    0.1772    0.5268   -1.3393 N   0  0  0  0  0  0  0  0  0  0  0  0
   -1.0224    0.1590   -0.6756 C   0  0  0  0  0  0  0  0  0  0  0  0
   -2.2523    0.6008   -1.0187 N   0  0  0  0  0  0  0  0  0  0  0  0
   -3.3358    0.1821   -0.3007 C   0  0  0  0  0  0  0  0  0  0  0  0
   -4.6092    0.6728   -0.6977 N   0  0  0  0  0  0  0  0  0  0  0  0
   -3.1427   -0.6485    0.7144 N   0  0  0  0  0  0  0  0  0  0  0  0
   -1.9167   -1.1166    1.0915 C   0  0  0  0  0  0  0  0  0  0  0  0
   -1.7633   -1.9008    2.0549 O   0  0  0  0  0  0  0  0  0  0  0  0
   -0.8131   -0.6991    0.3719 C   0  0  0  0  0  0  0  0  0  0  0  0
    0.4271   -1.1195    0.6959 N   0  0  0  0  0  0  0  0  0  0  0  0
  2  1  1  6
  2  3  1  0
  2  4  1  0
  4  5  1  1
  4  6  1  0
  6  7  1  6
  7  8  1  0
  8  9  1  0
  9 10  1  0
 10 11  1  0
 11 12  1  0
 11 13  2  0
 13 14  1  0
 14 15  2  0
 14 16  1  0
 16 17  1  0
 17  6  1  0
 16  9  2  0
M  END
>  <zinc_id>  (1) 
ZINC000000895154

>  <smiles>  (1) 
C[C@@H](O)[C@H](O)[C@@H]1CNc2[nH]c(N)nc(=O)c2N1

$$$$
