
     RDKit          3D

 18 19  0  0  0  0  0  0  0  0999 V2000
   -3.5854   -2.6031   -0.1987 C   0  0  0  0  0  0  0  0  0  0  0  0
   -3.5257   -1.1091   -0.1958 C   0  0  0  0  0  0  0  0  0  0  0  0
   -2.2255   -0.6008   -0.4045 O   0  0  0  0  0  0  0  0  0  0  0  0
   -1.1555   -0.8681    0.4247 C   0  0  0  0  0  0  0  0  0  0  0  0
   -1.3582   -1.6065    1.4197 O   0  0  0  0  0  0  0  0  0  0  0  0
    0.2081   -0.3292    0.1974 C   0  0  0  0  0  0  0  0  0  0  0  0
    0.1066    1.1437    0.2257 C   0  0  0  0  0  0  0  0  0  0  0  0
    0.9451    1.9912    0.8773 C   0  0  0  0  0  0  0  0  0  0  0  0
    0.7883    3.3662    0.8598 C   0  0  0  0  0  0  0  0  0  0  0  0
   -0.2528    3.9392    0.1613 C   0  0  0  0  0  0  0  0  0  0  0  0
   -1.1107    3.0898   -0.5041 C   0  0  0  0  0  0  0  0  0  0  0  0
   -0.9458    1.7161   -0.4807 C   0  0  0  0  0  0  0  0  0  0  0  0
    0.6912   -0.7492   -1.1982 C   0  0  0  0  0  0  0  0  0  0  0  0
    2.1758   -0.9397   -1.2369 C   0  0  0  0  0  0  0  0  0  0  0  0
    2.6458   -1.9391   -0.3091 N   0  0  0  0  0  0  0  0  0  0  0  0
    3.8005   -1.3914    0.3812 C   0  0  0  0  0  0  0  0  0  0  0  0
    1.6498   -2.2268    0.7108 C   0  0  0  0  0  0  0  0  0  0  0  0
    1.1484   -0.8831    1.2125 C   0  0  0  0  0  0  0  0  0  0  0  0
  1  2  1  0
  2  3  1  0
  3  4  1  0
  4  5  2  0
  4  6  1  0
  6  7  1  0
  7  8  2  0
  8  9  1  0
  9 10  2  0
 10 11  1  0
 11 12  2  0
  6 13  1  0
 13 14  1  0
 14 15  1  0
 15 16  1  0
 15 17  1  0
 17 18  1  0
 18  6  1  0
 12  7  1  0
M  END
>  <zinc_id>  (1) 
ZINC000000001681

>  <smiles>  (1) 
CCOC(=O)C1(c2ccccc2)CCN(C)CC1

$$$$
