
     RDKit          3D

 20 21  0  0  0  0  0  0  0  0999 V2000
    3.8168   -1.4593    0.1846 C   0  0  0  0  0  0  0  0  0  0  0  0
    2.5164   -1.9843    0.1724 N   0  0  0  0  0  0  0  0  0  0  0  0
    2.1879   -3.0071    1.0936 C   0  0  0  0  0  0  0  0  0  0  0  0
    1.7298   -1.8258   -0.9841 C   0  0  0  0  0  0  0  0  0  0  0  0
    1.2689   -0.4306   -1.2858 C   0  0  0  0  0  0  0  0  0  0  0  0
    0.4022    0.1048   -0.1576 C   0  0  2  0  0  0  0  0  0  0  0  0
    1.2793    0.0726    0.9765 O   0  0  0  0  0  0  0  0  0  0  0  0
   -0.7040   -0.7871    0.1675 C   0  0  0  0  0  0  0  0  0  0  0  0
   -1.3804   -0.7773    1.3339 C   0  0  0  0  0  0  0  0  0  0  0  0
   -2.4210   -1.6238    1.6557 C   0  0  0  0  0  0  0  0  0  0  0  0
   -2.8273   -2.5737    0.7272 C   0  0  0  0  0  0  0  0  0  0  0  0
   -2.1605   -2.6164   -0.4771 C   0  0  0  0  0  0  0  0  0  0  0  0
   -1.1341   -1.7553   -0.7579 C   0  0  0  0  0  0  0  0  0  0  0  0
    0.0487    1.4988   -0.4100 C   0  0  0  0  0  0  0  0  0  0  0  0
    0.2064    1.9384   -1.7476 C   0  0  0  0  0  0  0  0  0  0  0  0
   -0.1557    3.1739   -2.1313 C   0  0  0  0  0  0  0  0  0  0  0  0
   -0.7019    4.0552   -1.1992 C   0  0  0  0  0  0  0  0  0  0  0  0
   -0.8666    3.6544    0.1112 C   0  0  0  0  0  0  0  0  0  0  0  0
   -0.4830    2.3631    0.5057 C   0  0  0  0  0  0  0  0  0  0  0  0
   -0.6220    1.9796    2.2221 Cl  0  0  0  0  0  0  0  0  0  0  0  0
  1  2  1  0
  2  3  1  0
  2  4  1  0
  4  5  1  0
  5  6  1  0
  6  7  1  1
  6  8  1  0
  8  9  2  0
  9 10  1  0
 10 11  2  0
 11 12  1  0
 12 13  2  0
  6 14  1  0
 14 15  2  0
 15 16  1  0
 16 17  2  0
 17 18  1  0
 18 19  2  0
 19 20  1  0
 13  8  1  0
 19 14  1  0
M  END
>  <zinc_id>  (1) 
ZINC000000057254

>  <smiles>  (1) 
CN(C)CC[C@](O)(c1ccccc1)c1ccccc1Cl

$$$$
