
     RDKit          3D

 35 39  0  0  0  0  0  0  0  0999 V2000
    5.3325   -2.3764    1.8414 C   0  0  0  0  0  0  0  0  0  0  0  0
    4.9572   -1.6493    1.0762 C   0  0  0  0  0  0  0  0  0  0  0  0
    5.8837   -0.9629    0.5112 O   0  0  0  0  0  0  0  0  0  0  0  0
    3.6779   -1.3773    0.6503 O   0  0  0  0  0  0  0  0  0  0  0  0
    3.3701   -0.4402   -0.3417 C   0  0  2  0  0  0  0  0  0  0  0  0
    3.9690   -0.9221   -1.6128 C   0  0  0  0  0  0  0  0  0  0  0  0
    4.5659   -2.2716   -1.7896 C   0  0  0  0  0  0  0  0  0  0  0  0
    4.0224   -0.2387   -2.6523 O   0  0  0  0  0  0  0  0  0  0  0  0
    4.0856    0.8956   -0.1241 C   0  0  0  0  0  0  0  0  0  0  0  0
    3.0900    1.7826   -0.8724 C   0  0  0  0  0  0  0  0  0  0  0  0
    1.9477    1.3817    0.2175 C   0  0  1  0  0  0  0  0  0  0  0  0
    0.5937    1.8137   -0.6768 C   0  0  2  0  0  0  0  0  0  0  0  0
    0.6468    3.3496   -0.1992 C   0  0  0  0  0  0  0  0  0  0  0  0
   -0.6153    3.8374   -0.9411 C   0  0  0  0  0  0  0  0  0  0  0  0
   -1.7351    3.1971   -0.2074 C   0  0  0  0  0  0  0  0  0  0  0  0
   -2.9245    3.7387   -0.2951 C   0  0  0  0  0  0  0  0  0  0  0  0
   -4.0445    3.1016    0.4370 C   0  0  0  0  0  0  0  0  0  0  0  0
   -5.2186    3.1952    0.0259 O   0  0  0  0  0  0  0  0  0  0  0  0
   -3.7014    2.3693    1.6481 C   0  0  0  0  0  0  0  0  0  0  0  0
   -2.4531    1.5445    1.5977 C   0  0  0  0  0  0  0  0  0  0  0  0
   -1.4617    1.9766    0.5897 C   0  0  0  0  0  0  0  0  0  0  0  0
   -0.3753    1.2939    0.4025 C   0  0  0  0  0  0  0  0  0  0  0  0
   -0.0932    0.0201    1.2555 C   0  0  1  0  0  0  0  0  0  0  0  0
   -1.2584   -0.9112    0.8333 C   0  0  0  0  0  0  0  0  0  0  0  0
   -1.7777   -1.6875    1.8285 C   0  0  0  0  0  0  0  0  0  0  0  0
   -2.8273   -2.5715    1.5902 C   0  0  0  0  0  0  0  0  0  0  0  0
   -3.3302   -2.6455    0.3278 C   0  0  0  0  0  0  0  0  0  0  0  0
   -4.4136   -3.5663    0.1090 N   0  0  0  0  0  0  0  0  0  0  0  0
   -5.0201   -3.7168   -1.2118 C   0  0  0  0  0  0  0  0  0  0  0  0
   -4.9555   -4.3808    1.1613 C   0  0  0  0  0  0  0  0  0  0  0  0
   -2.8324   -1.8858   -0.6770 C   0  0  0  0  0  0  0  0  0  0  0  0
   -1.7732   -1.0048   -0.3999 C   0  0  0  0  0  0  0  0  0  0  0  0
    1.0869   -0.7398    0.4927 C   0  0  0  0  0  0  0  0  0  0  0  0
    1.9122   -0.1022   -0.4041 C   0  0  2  0  0  0  0  0  0  0  0  0
    1.6694   -0.0467   -1.8767 C   0  0  0  0  0  0  0  0  0  0  0  0
  1  2  1  0
  2  3  2  0
  2  4  1  0
  5  4  1  1
  5  6  1  0
  6  7  1  0
  6  8  2  0
  5  9  1  0
  9 10  1  0
 11 10  1  6
 11 12  1  0
 12 13  1  1
 13 14  1  0
 14 15  1  0
 15 16  2  0
 16 17  1  0
 17 18  2  0
 17 19  1  0
 19 20  1  0
 20 21  1  0
 21 22  2  0
 22 23  1  0
 23 24  1  6
 24 25  2  0
 25 26  1  0
 26 27  2  0
 27 28  1  0
 28 29  1  0
 28 30  1  0
 27 31  1  0
 31 32  2  0
 23 33  1  0
 33 34  1  0
 34 35  1  6
 34  5  1  0
 34 11  1  0
 22 12  1  0
 32 24  1  0
 21 15  1  0
M  END
>  <zinc_id>  (1) 
ZINC000003920657

>  <smiles>  (1) 
CC(=O)O[C@]1(C(C)=O)CC[C@H]2[C@@H]3CCC4=CC(=O)CCC4=C3[C@@H](c3ccc(N(C)C)cc3)C[C@@]21C

$$$$
