
     RDKit          3D

 32 34  0  0  0  0  0  0  0  0999 V2000
    9.4240   -3.2284   -0.1614 C   0  0  0  0  0  0  0  0  0  0  0  0
    8.2339   -2.3772   -0.1256 N   0  0  0  0  0  0  0  0  0  0  0  0
    8.3219   -0.9672   -0.0426 C   0  0  0  0  0  0  0  0  0  0  0  0
    9.4583   -0.4530    0.0003 O   0  0  0  0  0  0  0  0  0  0  0  0
    7.1233   -0.1210   -0.0073 C   0  0  0  0  0  0  0  0  0  0  0  0
    5.8581   -0.6323   -0.0515 C   0  0  0  0  0  0  0  0  0  0  0  0
    4.6964    0.1512   -0.0194 C   0  0  0  0  0  0  0  0  0  0  0  0
    3.4549   -0.4537   -0.0688 O   0  0  0  0  0  0  0  0  0  0  0  0
    2.3072    0.2794   -0.0396 C   0  0  0  0  0  0  0  0  0  0  0  0
    2.2339    1.6521    0.0390 C   0  0  0  0  0  0  0  0  0  0  0  0
    1.0455    2.3557    0.0661 C   0  0  0  0  0  0  0  0  0  0  0  0
   -0.1190    1.6556    0.0121 C   0  0  0  0  0  0  0  0  0  0  0  0
   -1.4086    2.2783    0.0333 N   0  0  0  0  0  0  0  0  0  0  0  0
   -2.6072    1.5172   -0.0245 C   0  0  0  0  0  0  0  0  0  0  0  0
   -2.5537    0.2443   -0.0975 O   0  0  0  0  0  0  0  0  0  0  0  0
   -3.8949    2.1017   -0.0055 N   0  0  0  0  0  0  0  0  0  0  0  0
   -5.0924    1.3104   -0.0650 C   0  0  0  0  0  0  0  0  0  0  0  0
   -6.3299    1.9095   -0.0445 C   0  0  0  0  0  0  0  0  0  0  0  0
   -7.5054    1.1528   -0.1018 C   0  0  0  0  0  0  0  0  0  0  0  0
   -7.4534   -0.2232   -0.1808 C   0  0  0  0  0  0  0  0  0  0  0  0
   -8.9132   -1.1981   -0.2540 Cl  0  0  0  0  0  0  0  0  0  0  0  0
   -6.2078   -0.8154   -0.2008 C   0  0  0  0  0  0  0  0  0  0  0  0
   -6.1160   -2.3140   -0.2864 C   0  0  0  0  0  0  0  0  0  0  0  0
   -6.7446   -2.8996    0.7940 F   0  0  0  0  0  0  0  0  0  0  0  0
   -6.7466   -2.7854   -1.4273 F   0  0  0  0  0  0  0  0  0  0  0  0
   -4.7902   -2.6886   -0.2889 F   0  0  0  0  0  0  0  0  0  0  0  0
   -5.0509   -0.0659   -0.1441 C   0  0  0  0  0  0  0  0  0  0  0  0
   -0.0786    0.2807   -0.0670 C   0  0  0  0  0  0  0  0  0  0  0  0
    1.0927   -0.4166   -0.0939 C   0  0  0  0  0  0  0  0  0  0  0  0
    4.9127    1.5084    0.0620 C   0  0  0  0  0  0  0  0  0  0  0  0
    6.1870    2.0304    0.1070 C   0  0  0  0  0  0  0  0  0  0  0  0
    7.2626    1.2118    0.0718 N   0  0  0  0  0  0  0  0  0  0  0  0
  1  2  1  0
  2  3  1  0
  3  4  2  0
  3  5  1  0
  5  6  2  0
  6  7  1  0
  7  8  1  0
  8  9  1  0
  9 10  2  0
 10 11  1  0
 11 12  2  0
 12 13  1  0
 13 14  1  0
 14 15  2  0
 14 16  1  0
 16 17  1  0
 17 18  2  0
 18 19  1  0
 19 20  2  0
 20 21  1  0
 20 22  1  0
 22 23  1  0
 23 24  1  0
 23 25  1  0
 23 26  1  0
 22 27  2  0
 12 28  1  0
 28 29  2  0
  7 30  2  0
 30 31  1  0
 31 32  2  0
 32  5  1  0
 29  9  1  0
 27 17  1  0
M  END
>  <zinc_id>  (1) 
ZINC000001493878

>  <smiles>  (1) 
CNC(=O)c1cc(Oc2ccc(NC(=O)Nc3ccc(Cl)c(C(F)(F)F)c3)cc2)ccn1

$$$$
