
     RDKit          3D

 20 21  0  0  0  0  0  0  0  0999 V2000
    4.4813   -1.0896    0.7442 C   0  0  0  0  0  0  0  0  0  0  0  0
    3.9630   -1.1192    0.2800 N   0  0  0  0  0  0  0  0  0  0  0  0
    3.7264   -2.2314   -0.6648 C   0  0  0  0  0  0  0  0  0  0  0  0
    2.8866   -0.1222    0.1114 C   0  0  0  0  0  0  0  0  0  0  0  0
    1.9605   -0.5305   -0.9878 C   0  0  0  0  0  0  0  0  0  0  0  0
    0.9614    0.3935   -1.1455 O   0  0  0  0  0  0  0  0  0  0  0  0
    0.1481    0.5753   -0.0735 C   0  0  1  0  0  0  0  0  0  0  0  0
    0.7914    1.0683    1.1858 C   0  0  0  0  0  0  0  0  0  0  0  0
   -0.9713    1.5316   -0.3636 C   0  0  0  0  0  0  0  0  0  0  0  0
   -1.8270    1.8072    0.6810 C   0  0  0  0  0  0  0  0  0  0  0  0
   -2.8784    2.6756    0.4900 C   0  0  0  0  0  0  0  0  0  0  0  0
   -3.0712    3.2664   -0.7464 C   0  0  0  0  0  0  0  0  0  0  0  0
   -2.1952    2.9670   -1.7677 C   0  0  0  0  0  0  0  0  0  0  0  0
   -1.1428    2.1060   -1.5991 C   0  0  0  0  0  0  0  0  0  0  0  0
   -0.5080   -0.7372    0.2588 C   0  0  0  0  0  0  0  0  0  0  0  0
   -1.2769   -0.7681    1.4024 C   0  0  0  0  0  0  0  0  0  0  0  0
   -1.9215   -1.9410    1.7861 C   0  0  0  0  0  0  0  0  0  0  0  0
   -1.7645   -3.0471    0.9947 C   0  0  0  0  0  0  0  0  0  0  0  0
   -0.9932   -2.9763   -0.1324 C   0  0  0  0  0  0  0  0  0  0  0  0
   -0.3686   -1.8282   -0.4984 N   0  0  0  0  0  0  0  0  0  0  0  0
  1  2  1  0
  2  3  1  0
  2  4  1  0
  4  5  1  0
  5  6  1  0
  6  7  1  0
  7  8  1  1
  7  9  1  0
  9 10  2  0
 10 11  1  0
 11 12  2  0
 12 13  1  0
 13 14  2  0
  7 15  1  0
 15 16  2  0
 16 17  1  0
 17 18  2  0
 18 19  1  0
 19 20  2  0
 14  9  1  0
 20 15  1  0
M  END
>  <zinc_id>  (1) 
ZINC000000000242

>  <smiles>  (1) 
CN(C)CCO[C@@](C)(c1ccccc1)c1ccccn1

$$$$
