
     RDKit          3D

 19 20  0  0  0  0  0  0  0  0999 V2000
    4.8817   -1.0662    0.0690 N   0  0  0  0  0  0  0  0  0  0  0  0
    3.6193   -1.3813    0.6272 C   0  0  0  0  0  0  0  0  0  0  0  0
    3.5281   -1.7343    1.8523 O   0  0  0  0  0  0  0  0  0  0  0  0
    2.3417   -1.3308   -0.1302 C   0  0  0  0  0  0  0  0  0  0  0  0
    1.6248    0.3358    0.2051 S   0  0  0  0  0  0  0  0  0  0  0  0
    1.1420    0.1503    1.6733 O   0  0  0  0  0  0  0  0  0  0  0  0
    0.0867    0.2901   -0.7598 C   0  0  0  0  0  0  0  0  0  0  0  0
   -0.6358    1.5723   -0.6027 C   0  0  0  0  0  0  0  0  0  0  0  0
   -1.2377    2.2154   -1.6584 C   0  0  0  0  0  0  0  0  0  0  0  0
   -1.9032    3.4063   -1.4649 C   0  0  0  0  0  0  0  0  0  0  0  0
   -1.9971    4.0082   -0.2083 C   0  0  0  0  0  0  0  0  0  0  0  0
   -1.4040    3.3751    0.8372 C   0  0  0  0  0  0  0  0  0  0  0  0
   -0.7386    2.1861    0.6498 C   0  0  0  0  0  0  0  0  0  0  0  0
   -0.7517   -0.8915   -0.4570 C   0  0  0  0  0  0  0  0  0  0  0  0
   -1.3788   -1.5887   -1.4790 C   0  0  0  0  0  0  0  0  0  0  0  0
   -2.1658   -2.6843   -1.2069 C   0  0  0  0  0  0  0  0  0  0  0  0
   -2.3451   -3.1095    0.0897 C   0  0  0  0  0  0  0  0  0  0  0  0
   -1.7222   -2.4198    1.1151 C   0  0  0  0  0  0  0  0  0  0  0  0
   -0.9444   -1.3332    0.8271 C   0  0  0  0  0  0  0  0  0  0  0  0
  1  2  1  0
  2  3  2  0
  2  4  1  0
  5  4  1  6
  5  6  2  0
  5  7  1  0
  7  8  1  0
  8  9  2  0
  9 10  1  0
 10 11  2  0
 11 12  1  0
 12 13  2  0
  7 14  1  0
 14 15  2  0
 15 16  1  0
 16 17  2  0
 17 18  1  0
 18 19  2  0
 13  8  1  0
 19 14  1  0
M  END
>  <zinc_id>  (1) 
ZINC000003831139

>  <smiles>  (1) 
NC(=O)C[S@](=O)C(c1ccccc1)c1ccccc1

$$$$
