
     RDKit          3D

 22 24  0  0  0  0  0  0  0  0999 V2000
    2.6015   -2.8917    0.3776 C   0  0  0  0  0  0  0  0  0  0  0  0
    3.2476   -1.5859    0.0992 C   0  0  0  0  0  0  0  0  0  0  0  0
    4.5290   -1.4769   -0.4030 C   0  0  0  0  0  0  0  0  0  0  0  0
    5.0374   -0.2131   -0.6268 C   0  0  0  0  0  0  0  0  0  0  0  0
    4.2850    0.9177   -0.3561 C   0  0  0  0  0  0  0  0  0  0  0  0
    3.0050    0.8256    0.1451 C   0  0  0  0  0  0  0  0  0  0  0  0
    2.2128    1.9890    0.4306 N   0  0  0  0  0  0  0  0  0  0  0  0
    2.7457    3.3115    0.1960 C   0  0  0  0  0  0  0  0  0  0  0  0
    0.9051    1.8502    0.9435 C   0  0  0  0  0  0  0  0  0  0  0  0
    0.0057    3.1722    1.2677 S   0  0  0  0  0  0  0  0  0  0  0  0
    0.3234    0.6109    1.1954 O   0  0  0  0  0  0  0  0  0  0  0  0
   -0.9447    0.3653    0.6359 C   0  0  0  0  0  0  0  0  0  0  0  0
   -1.5937    1.3075   -0.1326 C   0  0  0  0  0  0  0  0  0  0  0  0
   -2.8325    1.0957   -0.6920 C   0  0  0  0  0  0  0  0  0  0  0  0
   -3.4705   -0.1174   -0.4816 C   0  0  0  0  0  0  0  0  0  0  0  0
   -4.7015   -0.3700   -1.0184 C   0  0  0  0  0  0  0  0  0  0  0  0
   -5.2983   -1.5826   -0.7865 C   0  0  0  0  0  0  0  0  0  0  0  0
   -4.6886   -2.5612   -0.0224 C   0  0  0  0  0  0  0  0  0  0  0  0
   -3.4482   -2.2967    0.5139 C   0  0  0  0  0  0  0  0  0  0  0  0
   -2.8451   -1.0754    0.2815 C   0  0  0  0  0  0  0  0  0  0  0  0
   -1.5911   -0.8298    0.8336 C   0  0  0  0  0  0  0  0  0  0  0  0
    2.5162   -0.4450    0.3614 C   0  0  0  0  0  0  0  0  0  0  0  0
  1  2  1  0
  2  3  2  0
  3  4  1  0
  4  5  2  0
  5  6  1  0
  6  7  1  0
  7  8  1  0
  7  9  1  0
  9 10  2  0
  9 11  1  0
 11 12  1  0
 12 13  2  0
 13 14  1  0
 14 15  2  0
 15 16  1  0
 16 17  2  0
 17 18  1  0
 18 19  2  0
 19 20  1  0
 20 21  2  0
  6 22  2  0
 22  2  1  0
 21 12  1  0
 20 15  1  0
M  END
>  <zinc_id>  (1) 
ZINC000000057522

>  <smiles>  (1) 
Cc1cccc(N(C)C(=S)Oc2ccc3ccccc3c2)c1

$$$$
