
     RDKit          3D

 26 29  0  0  0  0  0  0  0  0999 V2000
   -4.1655    0.6911   -1.6476 O   0  0  0  0  0  0  0  0  0  0  0  0
   -4.2159    0.4376   -0.3963 C   0  0  0  0  0  0  0  0  0  0  0  0
   -5.1272   -0.3697    0.2012 N   0  0  0  0  0  0  0  0  0  0  0  0
   -6.1546   -1.0782   -0.3017 C   0  0  0  0  0  0  0  0  0  0  0  0
   -6.9532   -1.8371    0.5214 C   0  0  0  0  0  0  0  0  0  0  0  0
   -6.7106   -1.8846    1.8924 C   0  0  0  0  0  0  0  0  0  0  0  0
   -5.6540   -1.1533    2.3934 C   0  0  0  0  0  0  0  0  0  0  0  0
   -4.8924   -0.4144    1.5200 C   0  0  0  0  0  0  0  0  0  0  0  0
   -3.8245    0.3797    1.7056 N   0  0  0  0  0  0  0  0  0  0  0  0
   -3.4183    0.8886    0.5708 N   0  0  0  0  0  0  0  0  0  0  0  0
   -2.2954    1.7836    0.4160 C   0  0  0  0  0  0  0  0  0  0  0  0
   -1.0449    0.9324    0.1698 C   0  0  0  0  0  0  0  0  0  0  0  0
    0.1184    1.8882    0.0105 C   0  0  0  0  0  0  0  0  0  0  0  0
    1.2998    1.0788   -0.2219 N   0  0  0  0  0  0  0  0  0  0  0  0
    1.1464    0.4628   -1.5224 C   0  0  0  0  0  0  0  0  0  0  0  0
    2.1949   -0.6147   -1.7535 C   0  0  0  0  0  0  0  0  0  0  0  0
    3.0758   -0.6060   -0.6228 N   0  0  0  0  0  0  0  0  0  0  0  0
    4.4543   -0.3722   -0.7924 C   0  0  0  0  0  0  0  0  0  0  0  0
    4.9530   -0.1519   -2.0654 C   0  0  0  0  0  0  0  0  0  0  0  0
    6.2848    0.0753   -2.2388 C   0  0  0  0  0  0  0  0  0  0  0  0
    7.1614    0.0924   -1.1698 C   0  0  0  0  0  0  0  0  0  0  0  0
    6.6997   -0.1222    0.1033 C   0  0  0  0  0  0  0  0  0  0  0  0
    7.8385   -0.0930    1.4303 Cl  0  0  0  0  0  0  0  0  0  0  0  0
    5.3504   -0.3502    0.2598 C   0  0  0  0  0  0  0  0  0  0  0  0
    2.5438   -0.8378    0.6906 C   0  0  0  0  0  0  0  0  0  0  0  0
    1.3351    0.0871    0.8475 C   0  0  0  0  0  0  0  0  0  0  0  0
  1  2  2  0
  2  3  1  0
  3  4  1  0
  4  5  2  0
  5  6  1  0
  6  7  2  0
  7  8  1  0
  8  9  2  0
  9 10  1  0
 10 11  1  0
 11 12  1  0
 12 13  1  0
 13 14  1  0
 14 15  1  0
 15 16  1  0
 16 17  1  0
 17 18  1  0
 18 19  2  0
 19 20  1  0
 20 21  2  0
 21 22  1  0
 22 23  1  0
 22 24  2  0
 17 25  1  0
 25 26  1  0
 10  2  1  0
 26 14  1  0
  8  3  1  0
 24 18  1  0
M  END
>  <zinc_id>  (1) 
ZINC000000538483

>  <smiles>  (1) 
O=c1n(CCCN2CCN(c3cccc(Cl)c3)CC2)nc2ccccn12

$$$$
