
     RDKit          3D

 49 55  0  0  0  0  0  0  0  0999 V2000
   11.7610   -1.1871    3.8994 C   0  0  0  0  0  0  0  0  0  0  0  0
   11.9625   -0.0395    3.0022 C   0  0  0  0  0  0  0  0  0  0  0  0
   12.4997   -0.8355    1.6424 C   0  0  2  0  0  0  0  0  0  0  0  0
   12.6589    0.5994    0.7923 C   0  0  0  0  0  0  0  0  0  0  0  0
   11.1089   -1.1551    1.0759 N   0  0  0  0  0  0  0  0  0  0  0  0
   10.8305   -2.2964    0.4970 N   0  0  0  0  0  0  0  0  0  0  0  0
    9.5067   -2.2620    0.1042 C   0  0  0  0  0  0  0  0  0  0  0  0
    8.9970   -1.0826    0.4568 N   0  0  0  0  0  0  0  0  0  0  0  0
    7.7025   -0.5385    0.2936 C   0  0  0  0  0  0  0  0  0  0  0  0
    7.4047    0.3869   -0.6824 C   0  0  0  0  0  0  0  0  0  0  0  0
    6.1743    0.9512   -0.8923 C   0  0  0  0  0  0  0  0  0  0  0  0
    5.1234    0.5898   -0.0826 C   0  0  0  0  0  0  0  0  0  0  0  0
    3.8165    1.1193   -0.2230 N   0  0  0  0  0  0  0  0  0  0  0  0
    2.7988    0.6566    0.6926 C   0  0  0  0  0  0  0  0  0  0  0  0
    1.8900    1.8706    0.9413 C   0  0  0  0  0  0  0  0  0  0  0  0
    1.2459    2.1028   -0.3129 N   0  0  0  0  0  0  0  0  0  0  0  0
   -0.1483    2.1738   -0.3728 C   0  0  0  0  0  0  0  0  0  0  0  0
   -0.9262    2.0221    0.7556 C   0  0  0  0  0  0  0  0  0  0  0  0
   -2.3016    2.0960    0.6759 C   0  0  0  0  0  0  0  0  0  0  0  0
   -2.9628    2.3211   -0.5122 C   0  0  0  0  0  0  0  0  0  0  0  0
   -4.3560    2.3971   -0.6000 O   0  0  0  0  0  0  0  0  0  0  0  0
   -5.1428    2.2415    0.5533 C   0  0  0  0  0  0  0  0  0  0  0  0
   -4.7628    0.7131    1.1016 C   0  0  1  0  0  0  0  0  0  0  0  0
   -6.2200    0.5344    1.8957 C   0  0  0  0  0  0  0  0  0  0  0  0
   -6.4819   -0.7691    1.3889 O   0  0  0  0  0  0  0  0  0  0  0  0
   -6.5677   -0.3020    0.0774 C   0  0  2  0  0  0  0  0  0  0  0  0
   -7.3266    0.8924   -0.2092 C   0  0  0  0  0  0  0  0  0  0  0  0
   -8.6912    1.0976    0.0157 N   0  0  0  0  0  0  0  0  0  0  0  0
   -9.3654    1.5346    1.0902 C   0  0  0  0  0  0  0  0  0  0  0  0
  -10.6507    1.6143    0.7877 N   0  0  0  0  0  0  0  0  0  0  0  0
  -10.7877    1.2274   -0.4781 C   0  0  0  0  0  0  0  0  0  0  0  0
   -9.6016    0.9106   -0.9582 N   0  0  0  0  0  0  0  0  0  0  0  0
   -6.8105   -1.4046   -0.8817 C   0  0  0  0  0  0  0  0  0  0  0  0
   -5.9735   -1.4816   -1.9939 C   0  0  0  0  0  0  0  0  0  0  0  0
   -6.1970   -2.4166   -2.9753 C   0  0  0  0  0  0  0  0  0  0  0  0
   -7.2421   -3.3148   -2.9170 C   0  0  0  0  0  0  0  0  0  0  0  0
   -7.5343   -4.5088   -4.1664 Cl  0  0  0  0  0  0  0  0  0  0  0  0
   -8.0410   -3.2028   -1.8005 C   0  0  0  0  0  0  0  0  0  0  0  0
   -7.8454   -2.2798   -0.7985 C   0  0  0  0  0  0  0  0  0  0  0  0
   -8.8462   -2.2691    0.6423 Cl  0  0  0  0  0  0  0  0  0  0  0  0
   -5.2214    0.0154   -0.1611 O   0  0  0  0  0  0  0  0  0  0  0  0
   -2.1824    2.4727   -1.6406 C   0  0  0  0  0  0  0  0  0  0  0  0
   -0.8144    2.3994   -1.5631 C   0  0  0  0  0  0  0  0  0  0  0  0
    2.0445    2.2587   -1.4858 C   0  0  0  0  0  0  0  0  0  0  0  0
    3.5173    2.1035   -1.2651 C   0  0  0  0  0  0  0  0  0  0  0  0
    5.3717   -0.3308    0.9058 C   0  0  0  0  0  0  0  0  0  0  0  0
    6.6182   -0.8819    1.0944 C   0  0  0  0  0  0  0  0  0  0  0  0
   10.0294   -0.4262    1.0584 C   0  0  0  0  0  0  0  0  0  0  0  0
    9.9391    0.7349    1.5323 O   0  0  0  0  0  0  0  0  0  0  0  0
  1  2  1  0
  2  3  1  0
  3  4  1  6
  3  5  1  0
  5  6  1  0
  6  7  2  0
  7  8  1  0
  8  9  1  0
  9 10  2  0
 10 11  1  0
 11 12  2  0
 12 13  1  0
 13 14  1  0
 14 15  1  0
 15 16  1  0
 16 17  1  0
 17 18  2  0
 18 19  1  0
 19 20  2  0
 20 21  1  0
 21 22  1  0
 23 22  1  6
 23 24  1  0
 24 25  1  0
 25 26  1  0
 26 27  1  1
 27 28  1  0
 28 29  1  0
 29 30  2  0
 30 31  1  0
 31 32  2  0
 26 33  1  0
 33 34  2  0
 34 35  1  0
 35 36  2  0
 36 37  1  0
 36 38  1  0
 38 39  2  0
 39 40  1  0
 26 41  1  0
 20 42  1  0
 42 43  2  0
 16 44  1  0
 44 45  1  0
 12 46  1  0
 46 47  2  0
  8 48  1  0
 48 49  2  0
 48  5  1  0
 47  9  1  0
 45 13  1  0
 43 17  1  0
 41 23  1  0
 32 28  1  0
 39 33  1  0
M  END
>  <zinc_id>  (1) 
ZINC000004097344

>  <smiles>  (1) 
CC[C@H](C)n1ncn(-c2ccc(N3CCN(c4ccc(OC[C@H]5CO[C@](Cn6cncn6)(c6ccc(Cl)cc6Cl)O5)cc4)CC3)cc2)c1=O

$$$$
