
     RDKit          3D

 24 27  0  0  0  0  0  0  0  0999 V2000
   -2.6553   -2.0695    0.6683 C   0  0  0  0  0  0  0  0  0  0  0  0
   -3.3557   -1.1419   -0.1257 C   0  0  2  0  0  0  0  0  0  0  0  0
   -2.8960   -0.9823   -1.5104 C   0  0  0  0  0  0  0  0  0  0  0  0
   -1.3653   -0.8121   -1.4607 C   0  0  0  0  0  0  0  0  0  0  0  0
   -1.2643    0.6975   -0.8299 C   0  0  2  0  0  0  0  0  0  0  0  0
    0.2895    0.7281   -0.7077 C   0  0  0  0  0  0  0  0  0  0  0  0
    1.0224    0.3658   -1.7998 C   0  0  0  0  0  0  0  0  0  0  0  0
    2.4279    0.3710   -1.7610 C   0  0  0  0  0  0  0  0  0  0  0  0
    3.0534    0.7499   -0.5965 C   0  0  0  0  0  0  0  0  0  0  0  0
    4.4508    0.7519   -0.5677 O   0  0  0  0  0  0  0  0  0  0  0  0
    5.2470   -0.6592   -0.0876 S   0  0  0  0  0  0  0  0  0  0  0  0
    4.8336   -1.7549   -1.0516 O   0  0  0  0  0  0  0  0  0  0  0  0
    6.7412   -0.4607   -0.2773 O   0  0  0  0  0  0  0  0  0  0  0  0
    4.9026   -1.0818    1.5005 O   0  0  0  0  0  0  0  0  0  0  0  0
    2.3207    1.1165    0.5084 C   0  0  0  0  0  0  0  0  0  0  0  0
    0.9085    1.1023    0.4420 C   0  0  0  0  0  0  0  0  0  0  0  0
    0.2352    1.5195    1.7004 C   0  0  0  0  0  0  0  0  0  0  0  0
   -1.2540    1.5453    1.4217 C   0  0  0  0  0  0  0  0  0  0  0  0
   -1.5030    0.1045    0.7697 C   0  0  1  0  0  0  0  0  0  0  0  0
   -3.1683    0.3316    0.6028 C   0  0  2  0  0  0  0  0  0  0  0  0
   -3.5634   -0.3404    2.0353 C   0  0  0  0  0  0  0  0  0  0  0  0
   -4.9637   -0.7944    1.5652 C   0  0  0  0  0  0  0  0  0  0  0  0
   -4.7740   -1.2022    0.1470 C   0  0  0  0  0  0  0  0  0  0  0  0
   -5.6698   -1.5126   -0.5853 O   0  0  0  0  0  0  0  0  0  0  0  0
  2  1  1  1
  2  3  1  0
  3  4  1  0
  5  4  1  6
  5  6  1  0
  6  7  2  0
  7  8  1  0
  8  9  2  0
  9 10  1  0
 10 11  1  0
 11 12  2  0
 11 13  2  0
 11 14  1  0
  9 15  1  0
 15 16  2  0
 16 17  1  0
 17 18  1  0
 19 18  1  1
 19 20  1  0
 20 21  1  1
 21 22  1  0
 22 23  1  0
 23 24  2  0
 20  2  1  0
 23  2  1  0
 19  5  1  0
 16  6  1  0
M  END
>  <zinc_id>  (1) 
ZINC000003876186

>  <smiles>  (1) 
C[C@]12CC[C@@H]3c4ccc(OS(=O)(=O)O)cc4CC[C@H]3[C@@H]1CCC2=O

$$$$
