
     RDKit          3D

 24 25  0  0  0  0  0  0  0  0999 V2000
    5.9069   -0.3096   -1.0517 N   0  0  0  0  0  0  0  0  0  0  0  0
    4.3344    0.0125   -1.0287 C   0  0  1  0  0  0  0  0  0  0  0  0
    4.0285   -1.3317   -0.1379 C   0  0  0  0  0  0  0  0  0  0  0  0
    2.5727   -1.3400    0.0555 C   0  0  0  0  0  0  0  0  0  0  0  0
    1.7554   -1.9320   -0.9217 C   0  0  0  0  0  0  0  0  0  0  0  0
    0.3946   -1.9608   -0.7261 C   0  0  0  0  0  0  0  0  0  0  0  0
   -0.9173   -2.8301   -2.1403 I   0  0  0  0  0  0  0  0  0  0  0  0
   -0.1295   -1.4020    0.4347 C   0  0  0  0  0  0  0  0  0  0  0  0
   -1.4882   -1.4302    0.6311 O   0  0  0  0  0  0  0  0  0  0  0  0
   -2.2817   -0.3893    0.1772 C   0  0  0  0  0  0  0  0  0  0  0  0
   -1.7956    0.7200   -0.4842 C   0  0  0  0  0  0  0  0  0  0  0  0
   -2.6133    1.7385   -0.9229 C   0  0  0  0  0  0  0  0  0  0  0  0
   -1.8906    3.4305   -1.9293 I   0  0  0  0  0  0  0  0  0  0  0  0
   -3.9618    1.6319   -0.6856 C   0  0  0  0  0  0  0  0  0  0  0  0
   -4.7929    2.6445   -1.1193 O   0  0  0  0  0  0  0  0  0  0  0  0
   -4.4981    0.5317   -0.0223 C   0  0  0  0  0  0  0  0  0  0  0  0
   -6.5565    0.3723    0.3381 I   0  0  0  0  0  0  0  0  0  0  0  0
   -3.6331   -0.4757    0.4040 C   0  0  0  0  0  0  0  0  0  0  0  0
    0.6573   -0.8193    1.3998 C   0  0  0  0  0  0  0  0  0  0  0  0
   -0.2320    0.0015    3.1268 I   0  0  0  0  0  0  0  0  0  0  0  0
    2.0208   -0.7959    1.1934 C   0  0  0  0  0  0  0  0  0  0  0  0
    4.4282    1.0226    0.1967 C   0  0  0  0  0  0  0  0  0  0  0  0
    5.3991    1.1085    0.9140 O   0  0  0  0  0  0  0  0  0  0  0  0
    3.2928    1.8020    0.3675 O   0  0  0  0  0  0  0  0  0  0  0  0
  2  1  1  1
  2  3  1  0
  3  4  1  0
  4  5  2  0
  5  6  1  0
  6  7  1  0
  6  8  2  0
  8  9  1  0
  9 10  1  0
 10 11  2  0
 11 12  1  0
 12 13  1  0
 12 14  2  0
 14 15  1  0
 14 16  1  0
 16 17  1  0
 16 18  2  0
  8 19  1  0
 19 20  1  0
 19 21  2  0
  2 22  1  0
 22 23  2  0
 22 24  1  0
 21  4  1  0
 18 10  1  0
M  END
>  <zinc_id>  (1) 
ZINC000003830993

>  <smiles>  (1) 
N[C@@H](Cc1cc(I)c(Oc2cc(I)c(O)c(I)c2)c(I)c1)C(=O)O

$$$$
