
     RDKit          3D

 34 34  0  0  0  0  0  0  0  0999 V2000
    0.3217    3.9982    1.9017 C   0  0  0  0  0  0  0  0  0  0  0  0
    0.2692    3.3978    1.7282 C   0  0  0  0  0  0  0  0  0  0  0  0
    1.0001    3.1293    2.5753 O   0  0  0  0  0  0  0  0  0  0  0  0
   -0.4354    2.7898    0.7565 N   0  0  0  0  0  0  0  0  0  0  0  0
   -1.2553    3.5096   -0.1158 C   0  0  0  0  0  0  0  0  0  0  0  0
   -0.5565    4.0006   -1.4671 C   0  0  2  0  0  0  0  0  0  0  0  0
    0.4882    4.8957   -0.8915 O   0  0  0  0  0  0  0  0  0  0  0  0
   -1.6212    5.2256   -1.7421 C   0  0  0  0  0  0  0  0  0  0  0  0
   -0.8393    6.0110   -2.6202 O   0  0  0  0  0  0  0  0  0  0  0  0
   -0.2807    1.3437    0.7233 C   0  0  0  0  0  0  0  0  0  0  0  0
    0.9158    0.7739    0.4608 C   0  0  0  0  0  0  0  0  0  0  0  0
    2.6725    1.9535    0.0712 I   0  0  0  0  0  0  0  0  0  0  0  0
    1.0503   -0.5987    0.4323 C   0  0  0  0  0  0  0  0  0  0  0  0
    2.3411   -1.2262    0.1503 C   0  0  0  0  0  0  0  0  0  0  0  0
    2.4515   -2.4666    0.1235 O   0  0  0  0  0  0  0  0  0  0  0  0
    3.5215   -0.4647   -0.1047 N   0  0  0  0  0  0  0  0  0  0  0  0
    4.8079   -1.0764   -0.3858 C   0  0  0  0  0  0  0  0  0  0  0  0
    4.5396   -1.9741   -1.7579 C   0  0  1  0  0  0  0  0  0  0  0  0
    4.1315   -0.7389   -2.5641 O   0  0  0  0  0  0  0  0  0  0  0  0
    6.1262   -1.8411   -2.2307 C   0  0  0  0  0  0  0  0  0  0  0  0
    5.9894   -1.9537   -3.6160 O   0  0  0  0  0  0  0  0  0  0  0  0
   -0.0554   -1.3694    0.6757 C   0  0  0  0  0  0  0  0  0  0  0  0
    0.1573   -3.4857    0.6372 I   0  0  0  0  0  0  0  0  0  0  0  0
   -1.2913   -0.8060    0.9466 C   0  0  0  0  0  0  0  0  0  0  0  0
   -2.4661   -1.6203    1.1996 C   0  0  0  0  0  0  0  0  0  0  0  0
   -3.5878   -1.0924    1.4733 O   0  0  0  0  0  0  0  0  0  0  0  0
   -2.4378   -3.0392    1.1579 N   0  0  0  0  0  0  0  0  0  0  0  0
   -3.6334   -3.8049    1.4192 C   0  0  0  0  0  0  0  0  0  0  0  0
   -4.6705   -3.2895    0.2585 C   0  0  2  0  0  0  0  0  0  0  0  0
   -5.7934   -4.2115    0.7463 O   0  0  0  0  0  0  0  0  0  0  0  0
   -4.1348   -4.3687   -0.8544 C   0  0  0  0  0  0  0  0  0  0  0  0
   -3.0691   -3.6732   -1.4338 O   0  0  0  0  0  0  0  0  0  0  0  0
   -1.3880    0.5733    0.9670 C   0  0  0  0  0  0  0  0  0  0  0  0
   -3.2677    1.4992    1.3794 I   0  0  0  0  0  0  0  0  0  0  0  0
  1  2  1  0
  2  3  2  0
  2  4  1  0
  4  5  1  0
  5  6  1  0
  6  7  1  1
  6  8  1  0
  8  9  1  0
  4 10  1  0
 10 11  2  0
 11 12  1  0
 11 13  1  0
 13 14  1  0
 14 15  2  0
 14 16  1  0
 16 17  1  0
 17 18  1  0
 18 19  1  6
 18 20  1  0
 20 21  1  0
 13 22  2  0
 22 23  1  0
 22 24  1  0
 24 25  1  0
 25 26  2  0
 25 27  1  0
 27 28  1  0
 28 29  1  0
 29 30  1  1
 29 31  1  0
 31 32  1  0
 24 33  2  0
 33 34  1  0
 33 10  1  0
M  END
>  <zinc_id>  (1) 
ZINC000003830945

>  <smiles>  (1) 
CC(=O)N(C[C@H](O)CO)c1c(I)c(C(=O)NC[C@H](O)CO)c(I)c(C(=O)NC[C@@H](O)CO)c1I

$$$$
