
     RDKit          2D

 19 21  0  0  0  0  0  0  0  0999 V2000
    6.2535   -0.0159    0.0000 O   0  0  0  0  0  0  0  0  0  0  0  0
    5.1216    0.9684    0.0000 C   0  0  0  0  0  0  0  0  0  0  0  0
    3.7032    0.4804    0.0000 C   0  0  0  0  0  0  0  0  0  0  0  0
    2.4747    1.3410    0.0000 O   0  0  0  0  0  0  0  0  0  0  0  0
    1.2765    0.4385    0.0000 C   0  0  0  0  0  0  0  0  0  0  0  0
   -0.1578    0.8773    0.0000 N   0  0  0  0  0  0  0  0  0  0  0  0
   -0.6459    2.2957    0.0000 C   0  0  0  0  0  0  0  0  0  0  0  0
   -2.1457    2.2698    0.0000 N   0  0  0  0  0  0  0  0  0  0  0  0
   -2.5845    0.8354    0.0000 C   0  0  0  0  0  0  0  0  0  0  0  0
   -1.3560   -0.0252    0.0000 C   0  0  0  0  0  0  0  0  0  0  0  0
   -1.2628   -1.5223    0.0000 N   0  0  0  0  0  0  0  0  0  0  0  0
   -2.3752   -2.5285    0.0000 C   0  0  0  0  0  0  0  0  0  0  0  0
   -3.8555   -2.2862    0.0000 N   0  0  0  0  0  0  0  0  0  0  0  0
   -4.5890   -0.9778    0.0000 C   0  0  0  0  0  0  0  0  0  0  0  0
   -4.0234    0.4115    0.0000 C   0  0  0  0  0  0  0  0  0  0  0  0
   -5.0296    1.5239    0.0000 O   0  0  0  0  0  0  0  0  0  0  0  0
    1.7646   -0.9799    0.0000 C   0  0  0  0  0  0  0  0  0  0  0  0
    3.2644   -0.9540    0.0000 C   0  0  0  0  0  0  0  0  0  0  0  0
    4.1669   -2.1521    0.0000 O   0  0  0  0  0  0  0  0  0  0  0  0
  1  2  1  0
  3  2  1  6
  3  4  1  0
  4  5  1  0
  5  6  1  6
  6  7  1  0
  7  8  2  0
  8  9  1  0
  9 10  2  0
 10 11  1  0
 11 12  2  0
 12 13  1  0
 13 14  1  0
 14 15  1  0
 15 16  1  1
  5 17  1  0
 17 18  1  0
 18 19  1  1
 18  3  1  0
 10  6  1  0
 15  9  1  0
M  END
>  <zinc_id>  (1) 
ZINC000003806262

>  <smiles>  (1) 
OC[C@H]1O[C@@H](n2cnc3c2N=CNC[C@H]3O)C[C@@H]1O

$$$$
