
     RDKit          3D

 22 23  0  0  0  0  0  0  0  0999 V2000
    2.5725   -1.2253   -1.7734 C   0  0  0  0  0  0  0  0  0  0  0  0
    2.5743   -1.4011   -0.2642 C   0  0  0  0  0  0  0  0  0  0  0  0
    3.6189   -0.6045    0.2610 N   0  0  0  0  0  0  0  0  0  0  0  0
    4.9253   -1.0563   -0.1030 C   0  0  0  0  0  0  0  0  0  0  0  0
    5.1879   -2.3802    0.5842 C   0  0  0  0  0  0  0  0  0  0  0  0
    3.3557    0.7673    0.2348 C   0  0  0  0  0  0  0  0  0  0  0  0
    2.3467    1.2908    1.1184 C   0  0  0  0  0  0  0  0  0  0  0  0
    1.0406    0.9483    1.1256 O   0  0  0  0  0  0  0  0  0  0  0  0
    0.0983    1.0949    0.1471 C   0  0  0  0  0  0  0  0  0  0  0  0
    0.4798    1.6130   -0.9398 O   0  0  0  0  0  0  0  0  0  0  0  0
   -1.3171    0.6961    0.2782 C   0  0  0  0  0  0  0  0  0  0  0  0
   -1.5505   -0.7761    0.4946 C   0  0  0  0  0  0  0  0  0  0  0  0
   -3.0846   -0.8822    0.6931 C   0  0  0  0  0  0  0  0  0  0  0  0
   -3.4928   -2.2997    0.9140 C   0  0  0  0  0  0  0  0  0  0  0  0
   -2.6917   -3.2061    0.0070 C   0  0  0  0  0  0  0  0  0  0  0  0
   -2.3177   -2.4191   -1.2252 C   0  0  0  0  0  0  0  0  0  0  0  0
   -1.2111   -1.4674   -0.8426 C   0  0  0  0  0  0  0  0  0  0  0  0
   -2.0889    1.0833   -0.9564 C   0  0  0  0  0  0  0  0  0  0  0  0
   -2.1285    2.5632   -1.1936 C   0  0  0  0  0  0  0  0  0  0  0  0
   -2.5896    3.3158    0.0387 C   0  0  0  0  0  0  0  0  0  0  0  0
   -1.7386    2.9220    1.2349 C   0  0  0  0  0  0  0  0  0  0  0  0
   -1.9889    1.4235    1.4482 C   0  0  0  0  0  0  0  0  0  0  0  0
  1  2  1  0
  2  3  1  0
  3  4  1  0
  4  5  1  0
  3  6  1  0
  6  7  1  0
  7  8  1  0
  8  9  1  0
  9 10  2  0
  9 11  1  0
 11 12  1  0
 12 13  1  0
 13 14  1  0
 14 15  1  0
 15 16  1  0
 16 17  1  0
 11 18  1  0
 18 19  1  0
 19 20  1  0
 20 21  1  0
 21 22  1  0
 22 11  1  0
 17 12  1  0
M  END
>  <zinc_id>  (1) 
ZINC000001530613

>  <smiles>  (1) 
CCN(CC)CCOC(=O)C1(C2CCCCC2)CCCCC1

$$$$
