
     RDKit          3D

 29 30  0  0  0  0  0  0  0  0999 V2000
   -4.9137    3.6305    0.3435 N   0  0  0  0  0  0  0  0  0  0  0  0
   -3.7869    4.3688    0.0775 C   0  0  0  0  0  0  0  0  0  0  0  0
   -2.6182    3.5854   -0.4852 C   0  0  0  0  0  0  0  0  0  0  0  0
   -2.2209    2.5331    0.5235 C   0  0  0  0  0  0  0  0  0  0  0  0
   -1.0648    1.7013    0.0176 C   0  0  0  0  0  0  0  0  0  0  0  0
   -0.6889    0.7168    1.1807 C   0  0  2  0  0  0  0  0  0  0  0  0
    0.6270    0.1152    0.3385 N   0  0  0  0  0  0  0  0  0  0  0  0
    1.2587    1.5950    0.2511 C   0  0  1  0  0  0  0  0  0  0  0  0
    2.7789    0.8932    0.6395 C   0  0  0  0  0  0  0  0  0  0  0  0
    2.9618   -0.1077   -0.4198 C   0  0  0  0  0  0  0  0  0  0  0  0
    4.2567   -0.8019   -0.3165 C   0  0  0  0  0  0  0  0  0  0  0  0
    5.3679   -0.2970   -0.9982 C   0  0  0  0  0  0  0  0  0  0  0  0
    6.5990   -0.8252   -1.0470 C   0  0  0  0  0  0  0  0  0  0  0  0
    6.7990   -2.0324   -0.3300 C   0  0  0  0  0  0  0  0  0  0  0  0
    5.7510   -2.5624    0.3548 C   0  0  0  0  0  0  0  0  0  0  0  0
    4.5087   -1.9797    0.3636 C   0  0  0  0  0  0  0  0  0  0  0  0
    1.5722    1.6925   -1.2836 C   0  0  0  0  0  0  0  0  0  0  0  0
    2.7611    2.0070   -1.5404 O   0  0  0  0  0  0  0  0  0  0  0  0
    0.6969    1.4597   -2.3078 O   0  0  0  0  0  0  0  0  0  0  0  0
   -1.5055   -0.5701    0.8668 C   0  0  0  0  0  0  0  0  0  0  0  0
   -0.7274   -1.5511    1.2290 O   0  0  0  0  0  0  0  0  0  0  0  0
   -2.7409   -0.7487    0.3362 N   0  0  0  0  0  0  0  0  0  0  0  0
   -3.7391    0.0451   -0.2067 C   0  0  0  0  0  0  0  0  0  0  0  0
   -4.8701   -0.7689   -0.7327 C   0  0  0  0  0  0  0  0  0  0  0  0
   -4.8387   -1.9435    0.2209 C   0  0  0  0  0  0  0  0  0  0  0  0
   -3.2439   -2.2485    0.3215 C   0  0  1  0  0  0  0  0  0  0  0  0
   -3.0096   -2.5077   -1.2254 C   0  0  0  0  0  0  0  0  0  0  0  0
   -2.3371   -1.7623   -1.9130 O   0  0  0  0  0  0  0  0  0  0  0  0
   -3.6331   -3.6364   -1.6949 O   0  0  0  0  0  0  0  0  0  0  0  0
  1  2  1  0
  2  3  1  0
  3  4  1  0
  4  5  1  0
  6  5  1  6
  6  7  1  0
  7  8  1  0
  8  9  1  1
  9 10  1  0
 10 11  1  0
 11 12  2  0
 12 13  1  0
 13 14  2  0
 14 15  1  0
 15 16  2  0
  8 17  1  0
 17 18  2  0
 17 19  1  0
  6 20  1  0
 20 21  2  0
 20 22  1  0
 22 23  1  0
 23 24  1  0
 24 25  1  0
 25 26  1  0
 26 27  1  6
 27 28  2  0
 27 29  1  0
 16 11  1  0
 26 22  1  0
M  END
>  <zinc_id>  (1) 
ZINC000003812863

>  <smiles>  (1) 
NCCCC[C@H](N[C@@H](CCc1ccccc1)C(=O)O)C(=O)N1CCC[C@H]1C(=O)O

$$$$
