
     RDKit          3D

 23 24  0  0  0  0  0  0  0  0999 V2000
   -1.4329   -2.2410    3.0656 C   0  0  0  0  0  0  0  0  0  0  0  0
   -0.9337   -1.8554    2.0912 C   0  0  0  0  0  0  0  0  0  0  0  0
   -0.7668   -0.4429    1.7699 C   0  0  0  0  0  0  0  0  0  0  0  0
   -1.1437    0.4425    2.4766 O   0  0  0  0  0  0  0  0  0  0  0  0
   -0.0563   -0.1196    0.4496 C   0  0  0  0  0  0  0  0  0  0  0  0
    1.1662   -0.8975    0.4432 C   0  0  0  0  0  0  0  0  0  0  0  0
    2.1043   -0.7463   -0.7938 C   0  0  1  0  0  0  0  0  0  0  0  0
    2.5160    0.7800   -0.6243 C   0  0  0  0  0  0  0  0  0  0  0  0
    3.3643   -1.3949   -0.2383 N   0  0  0  0  0  0  0  0  0  0  0  0
    4.5252   -0.7144   -0.7725 C   0  0  0  0  0  0  0  0  0  0  0  0
    3.3419   -1.6063    1.1521 C   0  0  0  0  0  0  0  0  0  0  0  0
   -1.0250   -0.7267   -0.5633 C   0  0  0  0  0  0  0  0  0  0  0  0
   -0.4918   -1.3292   -1.6791 C   0  0  0  0  0  0  0  0  0  0  0  0
   -1.3942   -1.8553   -2.5785 C   0  0  0  0  0  0  0  0  0  0  0  0
   -2.7646   -1.7713   -2.3523 C   0  0  0  0  0  0  0  0  0  0  0  0
   -3.2671   -1.1596   -1.2211 C   0  0  0  0  0  0  0  0  0  0  0  0
   -2.3695   -0.6331   -0.3205 C   0  0  0  0  0  0  0  0  0  0  0  0
   -0.1163    1.3139    0.2362 C   0  0  0  0  0  0  0  0  0  0  0  0
   -0.3499    1.8074   -1.0624 C   0  0  0  0  0  0  0  0  0  0  0  0
   -0.4571    3.1536   -1.3361 C   0  0  0  0  0  0  0  0  0  0  0  0
   -0.3353    4.0735   -0.3107 C   0  0  0  0  0  0  0  0  0  0  0  0
   -0.1106    3.6302    0.9485 C   0  0  0  0  0  0  0  0  0  0  0  0
   -0.0033    2.2924    1.2200 C   0  0  0  0  0  0  0  0  0  0  0  0
  1  2  1  0
  2  3  1  0
  3  4  2  0
  3  5  1  0
  5  6  1  0
  6  7  1  0
  7  8  1  1
  7  9  1  0
  9 10  1  0
  9 11  1  0
  5 12  1  0
 12 13  2  0
 13 14  1  0
 14 15  2  0
 15 16  1  0
 16 17  2  0
  5 18  1  0
 18 19  2  0
 19 20  1  0
 20 21  2  0
 21 22  1  0
 22 23  2  0
 17 12  1  0
 23 18  1  0
M  END
>  <zinc_id>  (1) 
ZINC000001530706

>  <smiles>  (1) 
CCC(=O)C(C[C@@H](C)N(C)C)(c1ccccc1)c1ccccc1

$$$$
