
     RDKit          3D

 21 23  0  0  0  0  0  0  0  0999 V2000
    4.0674   -2.2744    0.7816 C   0  0  0  0  0  0  0  0  0  0  0  0
    4.3892   -0.9026    0.5516 N   0  0  0  0  0  0  0  0  0  0  0  0
    5.1209   -0.7741   -0.6780 C   0  0  0  0  0  0  0  0  0  0  0  0
    3.3060    0.0048    0.6986 C   0  0  0  0  0  0  0  0  0  0  0  0
    2.2907   -0.1941   -0.4216 C   0  0  0  0  0  0  0  0  0  0  0  0
    1.1812    0.7604   -0.2829 C   0  0  0  0  0  0  0  0  0  0  0  0
   -0.0834    0.4593   -0.1723 C   0  0  0  0  0  0  0  0  0  0  0  0
   -0.4778   -0.9460   -0.1842 C   0  0  0  0  0  0  0  0  0  0  0  0
    0.5225   -1.7548   -0.6045 C   0  0  0  0  0  0  0  0  0  0  0  0
    0.3320   -3.1156   -0.6838 C   0  0  0  0  0  0  0  0  0  0  0  0
   -0.9032   -3.6041   -0.3211 C   0  0  0  0  0  0  0  0  0  0  0  0
   -1.9320   -2.7945    0.1091 C   0  0  0  0  0  0  0  0  0  0  0  0
   -1.7212   -1.4528    0.1797 C   0  0  0  0  0  0  0  0  0  0  0  0
   -2.9152   -0.6686    0.6561 C   0  0  0  0  0  0  0  0  0  0  0  0
   -3.2501    0.4463   -0.3382 C   0  0  0  0  0  0  0  0  0  0  0  0
   -2.3759    1.6317   -0.1068 C   0  0  0  0  0  0  0  0  0  0  0  0
   -3.0519    2.8257    0.0489 C   0  0  0  0  0  0  0  0  0  0  0  0
   -2.3127    3.9842    0.2728 C   0  0  0  0  0  0  0  0  0  0  0  0
   -0.9266    3.9652    0.3431 C   0  0  0  0  0  0  0  0  0  0  0  0
   -0.2614    2.7791    0.1879 C   0  0  0  0  0  0  0  0  0  0  0  0
   -0.9984    1.6250   -0.0360 C   0  0  0  0  0  0  0  0  0  0  0  0
  1  2  1  0
  2  3  1  0
  2  4  1  0
  4  5  1  0
  5  6  1  0
  6  7  2  3
  7  8  1  0
  8  9  2  0
  9 10  1  0
 10 11  2  0
 11 12  1  0
 12 13  2  0
 13 14  1  0
 14 15  1  0
 15 16  1  0
 16 17  2  0
 17 18  1  0
 18 19  2  0
 19 20  1  0
 20 21  2  0
 21  7  1  0
 13  8  1  0
 21 16  1  0
M  END
>  <zinc_id>  (1) 
ZINC000000968257

>  <smiles>  (1) 
CN(C)CCC=C1c2ccccc2CCc2ccccc21

$$$$
