
     RDKit          3D

 22 25  0  0  0  0  0  0  0  0999 V2000
   -2.9121    3.5678   -1.4988 Cl  0  0  0  0  0  0  0  0  0  0  0  0
   -1.4473    2.8033   -0.9182 C   0  0  0  0  0  0  0  0  0  0  0  0
   -0.2869    3.5445   -0.8617 C   0  0  0  0  0  0  0  0  0  0  0  0
    0.9096    3.0003   -0.4115 C   0  0  0  0  0  0  0  0  0  0  0  0
    0.9449    1.6974   -0.0128 C   0  0  0  0  0  0  0  0  0  0  0  0
   -0.2128    0.9362   -0.0627 C   0  0  0  0  0  0  0  0  0  0  0  0
   -1.4091    1.4775   -0.5119 C   0  0  0  0  0  0  0  0  0  0  0  0
   -0.3936   -0.4640    0.3133 C   0  0  0  0  0  0  0  0  0  0  0  0
   -1.7457   -0.8599    0.5121 N   0  0  0  0  0  0  0  0  0  0  0  0
   -2.8311   -0.0425    0.0684 C   0  0  0  0  0  0  0  0  0  0  0  0
   -3.9873   -0.8327   -0.4510 C   0  0  0  0  0  0  0  0  0  0  0  0
   -4.1850   -2.0841    0.2240 N   0  0  0  0  0  0  0  0  0  0  0  0
   -2.9750   -2.8875    0.2980 C   0  0  0  0  0  0  0  0  0  0  0  0
   -1.9966   -2.1212    1.1802 C   0  0  0  0  0  0  0  0  0  0  0  0
    0.5280   -1.3591    0.4799 N   0  0  0  0  0  0  0  0  0  0  0  0
    1.9355   -1.2222    0.3443 C   0  0  0  0  0  0  0  0  0  0  0  0
    2.5585   -2.4247    0.2319 C   0  0  0  0  0  0  0  0  0  0  0  0
    3.9280   -2.5101    0.0909 C   0  0  0  0  0  0  0  0  0  0  0  0
    4.6477   -1.3313    0.0676 C   0  0  0  0  0  0  0  0  0  0  0  0
    4.0460   -0.0960    0.1793 C   0  0  0  0  0  0  0  0  0  0  0  0
    2.6764   -0.0560    0.3184 C   0  0  0  0  0  0  0  0  0  0  0  0
    2.2080    1.2642    0.4202 O   0  0  0  0  0  0  0  0  0  0  0  0
  1  2  1  0
  2  3  2  0
  3  4  1  0
  4  5  2  0
  5  6  1  0
  6  7  2  0
  6  8  1  0
  8  9  1  0
  9 10  1  0
 10 11  1  0
 11 12  1  0
 12 13  1  0
 13 14  1  0
  8 15  2  0
 15 16  1  0
 16 17  2  0
 17 18  1  0
 18 19  2  0
 19 20  1  0
 20 21  2  0
 21 22  1  0
  7  2  1  0
 14  9  1  0
 21 16  1  0
 22  5  1  0
M  END
>  <zinc_id>  (1) 
ZINC000000000931

>  <smiles>  (1) 
Clc1ccc2c(c1)C(N1CCNCC1)=Nc1ccccc1O2

$$$$
