
     RDKit          3D

 30 33  0  0  0  0  0  0  0  0999 V2000
   -2.2553   -4.0068   -2.2551 N   0  0  0  0  0  0  0  0  0  0  0  0
   -2.0474   -3.2652   -1.0469 C   0  0  0  0  0  0  0  0  0  0  0  0
   -1.6470   -1.9779   -1.0506 N   0  0  0  0  0  0  0  0  0  0  0  0
   -1.4433   -1.2527    0.0486 C   0  0  0  0  0  0  0  0  0  0  0  0
   -1.1588    0.1101   -0.0353 N   0  0  0  0  0  0  0  0  0  0  0  0
   -2.2692    0.9535   -0.0610 C   0  0  0  0  0  0  0  0  0  0  0  0
   -2.1597    2.3056   -0.1407 C   0  0  0  0  0  0  0  0  0  0  0  0
   -3.3279    3.1935   -0.1678 C   0  0  0  0  0  0  0  0  0  0  0  0
   -4.4689    2.6840   -0.1155 O   0  0  0  0  0  0  0  0  0  0  0  0
   -3.2043    4.5624   -0.2487 O   0  0  0  0  0  0  0  0  0  0  0  0
   -0.9219    2.8969   -0.1997 C   0  0  0  0  0  0  0  0  0  0  0  0
   -0.8388    4.1467   -0.2730 O   0  0  0  0  0  0  0  0  0  0  0  0
    0.1737    2.0825   -0.1754 C   0  0  0  0  0  0  0  0  0  0  0  0
    1.3947    2.7294   -0.2372 C   0  0  0  0  0  0  0  0  0  0  0  0
    2.5363    1.9665   -0.2167 C   0  0  0  0  0  0  0  0  0  0  0  0
    3.7446    2.5994   -0.2775 F   0  0  0  0  0  0  0  0  0  0  0  0
    2.4480    0.6036   -0.1368 C   0  0  0  0  0  0  0  0  0  0  0  0
    3.6399   -0.1822   -0.1161 N   0  0  0  0  0  0  0  0  0  0  0  0
    3.9523   -1.5942   -0.0415 C   0  0  0  0  0  0  0  0  0  0  0  0
    5.2763   -1.2249    0.5833 C   0  0  0  0  0  0  0  0  0  0  0  0
    5.2190   -0.9783    1.9568 O   0  0  0  0  0  0  0  0  0  0  0  0
    5.0484    0.0858   -0.1601 C   0  0  0  0  0  0  0  0  0  0  0  0
    1.1999   -0.0170   -0.0759 C   0  0  0  0  0  0  0  0  0  0  0  0
    1.2263   -1.7414    0.0223 Cl  0  0  0  0  0  0  0  0  0  0  0  0
    0.0293    0.6981   -0.0931 C   0  0  0  0  0  0  0  0  0  0  0  0
   -1.6530   -1.8569    1.2638 C   0  0  0  0  0  0  0  0  0  0  0  0
   -1.4855   -1.2307    2.4513 F   0  0  0  0  0  0  0  0  0  0  0  0
   -2.0718   -3.2007    1.3307 C   0  0  0  0  0  0  0  0  0  0  0  0
   -2.2650   -3.8923    0.1475 C   0  0  0  0  0  0  0  0  0  0  0  0
   -2.6710   -5.1969    0.1462 F   0  0  0  0  0  0  0  0  0  0  0  0
  1  2  1  0
  2  3  2  0
  3  4  1  0
  4  5  1  0
  5  6  1  0
  6  7  2  0
  7  8  1  0
  8  9  2  0
  8 10  1  0
  7 11  1  0
 11 12  2  0
 11 13  1  0
 13 14  2  0
 14 15  1  0
 15 16  1  0
 15 17  2  0
 17 18  1  0
 18 19  1  0
 19 20  1  0
 20 21  1  0
 20 22  1  0
 17 23  1  0
 23 24  1  0
 23 25  2  0
  4 26  2  0
 26 27  1  0
 26 28  1  0
 28 29  2  0
 29 30  1  0
 29  2  1  0
 25  5  1  0
 25 13  1  0
 22 18  1  0
M  END
>  <zinc_id>  (1) 
ZINC000003827556

>  <smiles>  (1) 
Nc1nc(-n2cc(C(=O)O)c(=O)c3cc(F)c(N4CC(O)C4)c(Cl)c32)c(F)cc1F

$$$$
