
     RDKit          3D

 19 20  0  0  0  0  0  0  0  0999 V2000
   -3.4781    1.6730    0.8986 C   0  0  0  0  0  0  0  0  0  0  0  0
   -3.4890    0.0212    1.0189 C   0  0  1  0  0  0  0  0  0  0  0  0
   -4.5402   -0.2605   -0.1552 C   0  0  0  0  0  0  0  0  0  0  0  0
   -5.3390    0.5479   -0.5346 O   0  0  0  0  0  0  0  0  0  0  0  0
   -4.4060   -1.5373   -0.6633 O   0  0  0  0  0  0  0  0  0  0  0  0
   -2.1647   -0.1922    0.1546 C   0  0  0  0  0  0  0  0  0  0  0  0
   -2.1544   -0.4607   -1.1362 C   0  0  0  0  0  0  0  0  0  0  0  0
   -0.9626   -0.6259   -1.8024 C   0  0  0  0  0  0  0  0  0  0  0  0
    0.2042   -0.5023   -1.0804 C   0  0  0  0  0  0  0  0  0  0  0  0
    0.2460   -0.2229    0.2689 C   0  0  0  0  0  0  0  0  0  0  0  0
    1.4898   -0.0898    1.0257 C   0  0  0  0  0  0  0  0  0  0  0  0
    1.4025   -0.1758    2.2784 O   0  0  0  0  0  0  0  0  0  0  0  0
    2.7586    0.1305    0.3684 C   0  0  0  0  0  0  0  0  0  0  0  0
    2.8859    0.5613   -0.9158 C   0  0  0  0  0  0  0  0  0  0  0  0
    4.1362    0.7410   -1.4526 C   0  0  0  0  0  0  0  0  0  0  0  0
    5.3103    0.5032   -0.7449 C   0  0  0  0  0  0  0  0  0  0  0  0
    5.1759    0.0684    0.5527 C   0  0  0  0  0  0  0  0  0  0  0  0
    3.9190   -0.1107    1.0876 C   0  0  0  0  0  0  0  0  0  0  0  0
   -0.9945   -0.0683    0.8781 C   0  0  0  0  0  0  0  0  0  0  0  0
  2  1  1  6
  2  3  1  0
  3  4  2  0
  3  5  1  0
  2  6  1  0
  6  7  2  0
  7  8  1  0
  8  9  2  0
  9 10  1  0
 10 11  1  0
 11 12  2  0
 11 13  1  0
 13 14  2  0
 14 15  1  0
 15 16  2  0
 16 17  1  0
 17 18  2  0
 10 19  2  0
 19  6  1  0
 18 13  1  0
M  END
>  <zinc_id>  (1) 
ZINC000000002272

>  <smiles>  (1) 
C[C@@H](C(=O)O)c1cccc(C(=O)c2ccccc2)c1

$$$$
