
     RDKit          3D

 23 25  0  0  0  0  0  0  0  0999 V2000
    2.8602   -2.1589    0.1360 Cl  0  0  0  0  0  0  0  0  0  0  0  0
    2.7042   -1.1336   -1.0515 C   0  0  0  0  0  0  0  0  0  0  0  0
    3.7021   -0.8201   -2.4001 S   0  0  0  0  0  0  0  0  0  0  0  0
    2.8015    0.4154   -3.1593 C   0  0  0  0  0  0  0  0  0  0  0  0
    1.7444    0.5447   -2.3307 C   0  0  0  0  0  0  0  0  0  0  0  0
    1.6673   -0.2448   -1.2305 C   0  0  0  0  0  0  0  0  0  0  0  0
    0.4727   -0.0986   -0.2905 C   0  0  0  0  0  0  0  0  0  0  0  0
   -0.4103    0.8477   -0.6982 O   0  0  0  0  0  0  0  0  0  0  0  0
   -1.5534    0.8569    0.2748 C   0  0  2  0  0  0  0  0  0  0  0  0
   -0.7072    1.3231    1.5762 C   0  0  0  0  0  0  0  0  0  0  0  0
   -0.1729    2.6335    1.2966 N   0  0  0  0  0  0  0  0  0  0  0  0
   -0.7340    3.8522    1.5192 C   0  0  0  0  0  0  0  0  0  0  0  0
    0.0921    4.8655    1.1369 C   0  0  0  0  0  0  0  0  0  0  0  0
    1.2059    4.2567    0.6593 N   0  0  0  0  0  0  0  0  0  0  0  0
    1.0139    2.9325    0.7693 C   0  0  0  0  0  0  0  0  0  0  0  0
   -1.6240   -0.6917    0.4966 C   0  0  0  0  0  0  0  0  0  0  0  0
   -1.0997   -1.2144    1.6313 C   0  0  0  0  0  0  0  0  0  0  0  0
   -1.1324   -2.5871    1.9056 C   0  0  0  0  0  0  0  0  0  0  0  0
   -1.7324   -3.4113    0.9557 C   0  0  0  0  0  0  0  0  0  0  0  0
   -1.7979   -5.1391    1.2542 Cl  0  0  0  0  0  0  0  0  0  0  0  0
   -2.2615   -2.8531   -0.1970 C   0  0  0  0  0  0  0  0  0  0  0  0
   -2.2079   -1.4943   -0.4275 C   0  0  0  0  0  0  0  0  0  0  0  0
   -2.8307   -0.6811   -1.8264 Cl  0  0  0  0  0  0  0  0  0  0  0  0
  1  2  1  0
  2  3  1  0
  3  4  1  0
  4  5  2  0
  5  6  1  0
  6  7  1  0
  7  8  1  0
  8  9  1  0
  9 10  1  1
 10 11  1  0
 11 12  1  0
 12 13  2  0
 13 14  1  0
 14 15  2  0
  9 16  1  0
 16 17  2  0
 17 18  1  0
 18 19  2  0
 19 20  1  0
 19 21  1  0
 21 22  2  0
 22 23  1  0
  6  2  2  0
 15 11  1  0
 22 16  1  0
M  END
>  <zinc_id>  (1) 
ZINC000000608101

>  <smiles>  (1) 
Clc1ccc([C@@H](Cn2ccnc2)OCc2ccsc2Cl)c(Cl)c1

$$$$
