
     RDKit          3D

 10  9  0  0  0  0  0  0  0  0999 V2000
    2.5874   -1.6924    0.1005 C   0  0  0  0  0  0  0  0  0  0  0  0
    1.8561   -0.4177   -0.0108 C   0  0  0  0  0  0  0  0  0  0  0  0
    1.8517    0.4037    0.9255 O   0  0  0  0  0  0  0  0  0  0  0  0
    1.1626   -0.1175   -1.1624 O   0  0  0  0  0  0  0  0  0  0  0  0
    0.4755    1.0899   -1.2555 C   0  0  0  0  0  0  0  0  0  0  0  0
   -0.5758    1.1805   -0.1699 C   0  0  0  0  0  0  0  0  0  0  0  0
   -1.5525    0.1491   -0.2239 N   0  0  0  0  0  0  0  0  0  0  0  0
   -2.8455    0.7730   -0.5155 C   0  0  0  0  0  0  0  0  0  0  0  0
   -1.2700   -0.8980   -1.1736 C   0  0  0  0  0  0  0  0  0  0  0  0
   -1.6894   -0.4707    1.0809 C   0  0  0  0  0  0  0  0  0  0  0  0
  1  2  1  0
  2  3  2  0
  2  4  1  0
  4  5  1  0
  5  6  1  0
  6  7  1  0
  7  8  1  0
  7  9  1  0
  7 10  1  0
M  CHG  1   7   1
M  END
>  <zinc_id>  (1) 
ZINC000003079336

>  <smiles>  (1) 
CC(=O)OCC[N+](C)(C)C

$$$$
