
     RDKit          3D

 18 18  0  0  0  0  0  0  0  0999 V2000
   -4.9237   -1.1125    2.1531 C   0  0  0  0  0  0  0  0  0  0  0  0
   -4.7441   -0.4808    1.4945 C   0  0  0  0  0  0  0  0  0  0  0  0
   -5.5652    0.8213    1.4593 C   0  0  0  0  0  0  0  0  0  0  0  0
   -4.0873   -0.5514    0.2054 N   0  0  0  0  0  0  0  0  0  0  0  0
   -2.7209   -0.9285    0.2527 C   0  0  0  0  0  0  0  0  0  0  0  0
   -1.9209    0.3438    0.9879 C   0  0  2  0  0  0  0  0  0  0  0  0
   -2.3614    1.3338   -0.1078 O   0  0  0  0  0  0  0  0  0  0  0  0
   -0.5068    0.0245    0.2939 C   0  0  0  0  0  0  0  0  0  0  0  0
    0.2250    1.0614   -0.1652 C   0  0  0  0  0  0  0  0  0  0  0  0
    1.4559    0.7780   -0.7552 C   0  0  0  0  0  0  0  0  0  0  0  0
    1.9057   -0.5123   -0.8647 C   0  0  0  0  0  0  0  0  0  0  0  0
    3.1528   -0.7779   -1.4675 N   0  0  0  0  0  0  0  0  0  0  0  0
    4.4906    0.2154   -0.9987 S   0  0  0  0  0  0  0  0  0  0  0  0
    4.7368   -0.0317    0.7431 C   0  0  0  0  0  0  0  0  0  0  0  0
    4.1291    1.6565   -1.2641 O   0  0  0  0  0  0  0  0  0  0  0  0
    5.7000   -0.1821   -1.7842 O   0  0  0  0  0  0  0  0  0  0  0  0
    1.1336   -1.5370   -0.3870 C   0  0  0  0  0  0  0  0  0  0  0  0
   -0.0994   -1.2530    0.2045 C   0  0  0  0  0  0  0  0  0  0  0  0
  1  2  1  0
  2  3  1  0
  2  4  1  0
  4  5  1  0
  5  6  1  0
  6  7  1  6
  6  8  1  0
  8  9  2  0
  9 10  1  0
 10 11  2  0
 11 12  1  0
 12 13  1  0
 13 14  1  0
 13 15  2  0
 13 16  2  0
 11 17  1  0
 17 18  2  0
 18  8  1  0
M  END
>  <zinc_id>  (1) 
ZINC000000896819

>  <smiles>  (1) 
CC(C)NC[C@H](O)c1ccc(NS(C)(=O)=O)cc1

$$$$
