
     RDKit          3D

 39 43  0  0  0  0  0  0  0  0999 V2000
   -6.3073    3.0653   -1.5145 C   0  0  0  0  0  0  0  0  0  0  0  0
   -5.4102    2.3639   -1.1442 O   0  0  0  0  0  0  0  0  0  0  0  0
   -5.5475    1.1968   -0.4189 C   0  0  0  0  0  0  0  0  0  0  0  0
   -6.7845    0.7241   -0.0460 C   0  0  0  0  0  0  0  0  0  0  0  0
   -6.9102   -0.4410    0.6773 C   0  0  0  0  0  0  0  0  0  0  0  0
   -5.7800   -1.1430    1.0324 C   0  0  0  0  0  0  0  0  0  0  0  0
   -4.5313   -0.6730    0.6604 C   0  0  0  0  0  0  0  0  0  0  0  0
   -4.4101    0.4926   -0.0629 C   0  0  0  0  0  0  0  0  0  0  0  0
   -3.0827    1.0044   -0.4659 C   0  0  0  0  0  0  0  0  0  0  0  0
   -2.9801    2.0575   -1.1189 O   0  0  0  0  0  0  0  0  0  0  0  0
   -1.8666    0.2859   -0.1065 C   0  0  0  0  0  0  0  0  0  0  0  0
   -0.6165    0.7529   -0.4762 C   0  0  0  0  0  0  0  0  0  0  0  0
   -0.5099    1.9248   -1.2020 O   0  0  0  0  0  0  0  0  0  0  0  0
    0.4634   -0.0024   -0.0850 C   0  0  0  0  0  0  0  0  0  0  0  0
    0.3567   -1.1392    0.6181 C   0  0  0  0  0  0  0  0  0  0  0  0
   -0.8768   -1.5893    0.9772 C   0  0  0  0  0  0  0  0  0  0  0  0
   -0.9340   -2.7631    1.7013 O   0  0  0  0  0  0  0  0  0  0  0  0
   -2.0286   -0.8802    0.6198 C   0  0  0  0  0  0  0  0  0  0  0  0
   -3.3285   -1.3985    1.0250 C   0  0  0  0  0  0  0  0  0  0  0  0
   -3.4551   -2.4617    1.6858 O   0  0  0  0  0  0  0  0  0  0  0  0
    1.6557   -1.7559    0.8969 C   0  0  0  0  0  0  0  0  0  0  0  0
    2.3562   -2.0207   -0.4509 C   0  0  1  0  0  0  0  0  0  0  0  0
    3.6323   -2.6018   -0.1527 O   0  0  0  0  0  0  0  0  0  0  0  0
    1.5427   -3.1140   -0.9388 C   0  0  0  0  0  0  0  0  0  0  0  0
    0.3963   -2.9738   -1.4099 O   0  0  0  0  0  0  0  0  0  0  0  0
    2.0128   -4.4945   -0.9153 C   0  0  0  0  0  0  0  0  0  0  0  0
    3.2178   -4.8203   -0.4274 O   0  0  0  0  0  0  0  0  0  0  0  0
    2.4157   -0.8159   -1.2144 C   0  0  0  0  0  0  0  0  0  0  0  0
    1.9151    0.5381   -0.4728 C   0  0  2  0  0  0  0  0  0  0  0  0
    2.5483    0.2957    0.8384 O   0  0  0  0  0  0  0  0  0  0  0  0
    3.8699    0.9918    0.8496 C   0  0  1  0  0  0  0  0  0  0  0  0
    4.3227    0.8319   -0.7181 C   0  0  0  0  0  0  0  0  0  0  0  0
    4.8271    2.3077   -1.1125 C   0  0  2  0  0  0  0  0  0  0  0  0
    6.1125    1.8250   -1.8245 N   0  0  0  0  0  0  0  0  0  0  0  0
    5.5706    2.4629    0.4006 C   0  0  1  0  0  0  0  0  0  0  0  0
    6.2585    3.7284   -0.0112 O   0  0  0  0  0  0  0  0  0  0  0  0
    4.2583    3.2980    1.0954 C   0  0  2  0  0  0  0  0  0  0  0  0
    4.4481    2.5766    2.5625 C   0  0  0  0  0  0  0  0  0  0  0  0
    3.1791    2.3640    0.6489 O   0  0  0  0  0  0  0  0  0  0  0  0
  1  2  1  0
  2  3  1  0
  3  4  2  0
  4  5  1  0
  5  6  2  0
  6  7  1  0
  7  8  2  0
  8  9  1  0
  9 10  2  0
  9 11  1  0
 11 12  2  0
 12 13  1  0
 12 14  1  0
 14 15  2  0
 15 16  1  0
 16 17  1  0
 16 18  2  0
 18 19  1  0
 19 20  2  0
 15 21  1  0
 21 22  1  0
 22 23  1  1
 22 24  1  0
 24 25  2  0
 24 26  1  0
 26 27  1  0
 22 28  1  0
 28 29  1  0
 29 30  1  1
 31 30  1  6
 31 32  1  0
 32 33  1  0
 33 34  1  6
 33 35  1  0
 35 36  1  6
 35 37  1  0
 37 38  1  1
 37 39  1  0
  8  3  1  0
 18 11  1  0
 39 31  1  0
 19  7  1  0
 29 14  1  0
M  END
>  <zinc_id>  (1) 
ZINC000003938704

>  <smiles>  (1) 
COc1cccc2c1C(=O)c1c(O)c3c(c(O)c1C2=O)C[C@@](O)(C(=O)CO)C[C@@H]3O[C@H]1C[C@H](N)[C@@H](O)[C@H](C)O1

$$$$
