
     RDKit          3D

 20 21  0  0  0  0  0  0  0  0999 V2000
    3.9498    0.4593    0.5403 C   0  0  0  0  0  0  0  0  0  0  0  0
    3.8887   -0.3607    0.7352 N   0  0  0  0  0  0  0  0  0  0  0  0
    4.8563   -1.2427    1.4139 C   0  0  0  0  0  0  0  0  0  0  0  0
    2.8222   -1.2690    0.2996 C   0  0  0  0  0  0  0  0  0  0  0  0
    1.5053   -0.9153    0.9332 C   0  0  0  0  0  0  0  0  0  0  0  0
    1.2074    0.3900    0.5399 O   0  0  0  0  0  0  0  0  0  0  0  0
   -0.1392    0.5964    1.2553 C   0  0  2  0  0  0  0  0  0  0  0  0
   -0.8786   -0.6327    0.4845 C   0  0  0  0  0  0  0  0  0  0  0  0
   -0.7243   -0.7577   -0.8358 C   0  0  0  0  0  0  0  0  0  0  0  0
   -1.3598   -1.8035   -1.4709 C   0  0  0  0  0  0  0  0  0  0  0  0
   -2.1281   -2.6826   -0.7387 C   0  0  0  0  0  0  0  0  0  0  0  0
   -2.9487   -4.0289   -1.5433 Cl  0  0  0  0  0  0  0  0  0  0  0  0
   -2.2624   -2.5196    0.6220 C   0  0  0  0  0  0  0  0  0  0  0  0
   -1.6190   -1.4619    1.2601 C   0  0  0  0  0  0  0  0  0  0  0  0
   -0.6297    1.7626    0.2275 C   0  0  0  0  0  0  0  0  0  0  0  0
    0.2744    2.7256   -0.0756 C   0  0  0  0  0  0  0  0  0  0  0  0
   -0.1700    3.7191   -0.9392 C   0  0  0  0  0  0  0  0  0  0  0  0
   -1.4762    3.6863   -1.4392 C   0  0  0  0  0  0  0  0  0  0  0  0
   -2.3040    2.6463   -1.0528 C   0  0  0  0  0  0  0  0  0  0  0  0
   -1.8639    1.6889   -0.2158 N   0  0  0  0  0  0  0  0  0  0  0  0
  1  2  1  0
  2  3  1  0
  2  4  1  0
  4  5  1  0
  5  6  1  0
  7  6  1  6
  7  8  1  0
  8  9  2  0
  9 10  1  0
 10 11  2  0
 11 12  1  0
 11 13  1  0
 13 14  2  0
  7 15  1  0
 15 16  2  0
 16 17  1  0
 17 18  2  0
 18 19  1  0
 19 20  2  0
 14  8  1  0
 20 15  1  0
M  END
>  <zinc_id>  (1) 
ZINC000000002043

>  <smiles>  (1) 
CN(C)CCO[C@H](c1ccc(Cl)cc1)c1ccccn1

$$$$
