
     RDKit          3D

 15 15  0  0  0  0  0  0  0  0999 V2000
    0.9894   -1.3270    0.7771 N   0  0  0  0  0  0  0  0  0  0  0  0
    1.9562   -0.9395   -0.3895 C   0  0  2  0  0  0  0  0  0  0  0  0
    3.2201   -0.5091    0.4832 C   0  0  0  0  0  0  0  0  0  0  0  0
    3.2645   -0.5310    1.6769 O   0  0  0  0  0  0  0  0  0  0  0  0
    4.2438   -0.1102   -0.3946 O   0  0  0  0  0  0  0  0  0  0  0  0
    1.3552    0.6622   -0.6824 C   0  0  2  0  0  0  0  0  0  0  0  0
    1.5572    1.2082    0.7163 O   0  0  0  0  0  0  0  0  0  0  0  0
   -0.1680    0.3604   -0.5566 C   0  0  0  0  0  0  0  0  0  0  0  0
   -0.6416   -0.7724   -1.1393 C   0  0  0  0  0  0  0  0  0  0  0  0
   -2.0211   -1.0846   -1.0486 C   0  0  0  0  0  0  0  0  0  0  0  0
   -2.8711   -0.2317   -0.3672 C   0  0  0  0  0  0  0  0  0  0  0  0
   -4.2222   -0.5492   -0.2854 O   0  0  0  0  0  0  0  0  0  0  0  0
   -2.3810    0.9107    0.2178 C   0  0  0  0  0  0  0  0  0  0  0  0
   -3.2665    1.7330    0.8881 O   0  0  0  0  0  0  0  0  0  0  0  0
   -1.0151    1.1801    0.1043 C   0  0  0  0  0  0  0  0  0  0  0  0
  2  1  1  1
  2  3  1  0
  3  4  2  0
  3  5  1  0
  2  6  1  0
  6  7  1  1
  6  8  1  0
  8  9  2  0
  9 10  1  0
 10 11  2  0
 11 12  1  0
 11 13  1  0
 13 14  1  0
 13 15  2  0
 15  8  1  0
M  END
>  <zinc_id>  (1) 
ZINC000001482049

>  <smiles>  (1) 
N[C@H](C(=O)O)[C@H](O)c1ccc(O)c(O)c1

$$$$
