
     RDKit          3D

 43 50  0  0  0  0  0  0  0  0999 V2000
    4.4667    1.5510    3.0310 C   0  0  0  0  0  0  0  0  0  0  0  0
    4.2251    1.3762    1.9338 N   0  0  0  0  0  0  0  0  0  0  0  0
    2.8934    0.8440    1.7487 C   0  0  0  0  0  0  0  0  0  0  0  0
    2.6489    1.1840    0.1799 C   0  0  2  0  0  0  0  0  0  0  0  0
    1.2065    0.6363    0.0842 C   0  0  0  0  0  0  0  0  0  0  0  0
    0.8412   -0.2653   -0.6629 O   0  0  0  0  0  0  0  0  0  0  0  0
    0.1683    1.0619    0.7921 N   0  0  0  0  0  0  0  0  0  0  0  0
   -1.1249    0.9954    1.1083 C   0  0  2  0  0  0  0  0  0  0  0  0
   -1.1312    2.1132    2.1694 C   0  0  0  0  0  0  0  0  0  0  0  0
   -1.7097   -0.0918    1.7368 O   0  0  0  0  0  0  0  0  0  0  0  0
   -2.6890   -0.5845    0.8895 C   0  0  1  0  0  0  0  0  0  0  0  0
   -2.2950   -1.4327   -0.0627 O   0  0  0  0  0  0  0  0  0  0  0  0
   -3.8943   -1.2084    1.7797 C   0  0  2  0  0  0  0  0  0  0  0  0
   -3.1329   -2.6528    2.0817 C   0  0  0  0  0  0  0  0  0  0  0  0
   -4.3739   -3.5475    1.9689 C   0  0  0  0  0  0  0  0  0  0  0  0
   -4.7838   -3.1169    0.5968 C   0  0  0  0  0  0  0  0  0  0  0  0
   -4.6438   -1.7596    0.5291 N   0  0  0  0  0  0  0  0  0  0  0  0
   -4.9975   -0.7233   -0.4221 C   0  0  0  0  0  0  0  0  0  0  0  0
   -5.3897   -1.1033   -1.4905 O   0  0  0  0  0  0  0  0  0  0  0  0
   -4.8004    0.6986    0.1228 C   0  0  2  0  0  0  0  0  0  0  0  0
   -4.8681    1.6919   -1.0668 C   0  0  0  0  0  0  0  0  0  0  0  0
   -6.1596    1.6797   -1.7350 C   0  0  0  0  0  0  0  0  0  0  0  0
   -7.2904    2.3166   -1.2348 C   0  0  0  0  0  0  0  0  0  0  0  0
   -8.4656    2.3367   -1.9488 C   0  0  0  0  0  0  0  0  0  0  0  0
   -8.6062    1.7411   -3.1840 C   0  0  0  0  0  0  0  0  0  0  0  0
   -7.4922    1.1057   -3.6920 C   0  0  0  0  0  0  0  0  0  0  0  0
   -6.3199    1.0928   -2.9658 C   0  0  0  0  0  0  0  0  0  0  0  0
   -3.2932    0.6416    0.3282 N   0  0  0  0  0  0  0  0  0  0  0  0
   -2.1896    1.4728    0.1558 C   0  0  0  0  0  0  0  0  0  0  0  0
   -2.1450    2.4247   -0.6537 O   0  0  0  0  0  0  0  0  0  0  0  0
    3.4410   -0.1854   -0.2851 C   0  0  0  0  0  0  0  0  0  0  0  0
    4.9037    0.4808   -0.1352 C   0  0  2  0  0  0  0  0  0  0  0  0
    5.8022   -0.6772   -0.6233 C   0  0  0  0  0  0  0  0  0  0  0  0
    5.4873   -1.4916   -1.6542 C   0  0  0  0  0  0  0  0  0  0  0  0
    6.4140   -2.4411   -2.0362 C   0  0  0  0  0  0  0  0  0  0  0  0
    7.6520   -2.5758   -1.3889 C   0  0  0  0  0  0  0  0  0  0  0  0
    7.9795   -1.7483   -0.3342 C   0  0  0  0  0  0  0  0  0  0  0  0
    8.9880   -1.5480    0.5203 N   0  0  0  0  0  0  0  0  0  0  0  0
    8.6920   -0.5285    1.3861 C   0  0  0  0  0  0  0  0  0  0  0  0
    7.4530   -0.0539    1.0830 C   0  0  0  0  0  0  0  0  0  0  0  0
    7.0072   -0.8171    0.0016 C   0  0  0  0  0  0  0  0  0  0  0  0
    6.4795    0.9721    1.5980 C   0  0  0  0  0  0  0  0  0  0  0  0
    5.0463    0.1361    1.5019 C   0  0  1  0  0  0  0  0  0  0  0  0
  1  2  1  0
  2  3  1  0
  3  4  1  0
  4  5  1  1
  5  6  2  0
  5  7  1  0
  7  8  1  0
  8  9  1  1
  8 10  1  0
 10 11  1  0
 11 12  1  6
 11 13  1  0
 13 14  1  1
 14 15  1  0
 15 16  1  0
 16 17  1  0
 17 18  1  0
 18 19  2  0
 18 20  1  0
 20 21  1  6
 21 22  1  0
 22 23  2  0
 23 24  1  0
 24 25  2  0
 25 26  1  0
 26 27  2  0
 20 28  1  0
 28 29  1  0
 29 30  2  0
  4 31  1  0
 32 31  1  6
 32 33  1  0
 33 34  2  0
 34 35  1  0
 35 36  2  0
 36 37  1  0
 37 38  1  0
 38 39  1  0
 39 40  2  0
 40 41  1  0
 40 42  1  0
 43 42  1  1
 43  2  1  0
 29  8  1  0
 43 32  1  0
 28 11  1  0
 41 33  1  0
 17 13  1  0
 27 22  1  0
 41 37  2  0
M  END
>  <zinc_id>  (1) 
ZINC000003978005

>  <smiles>  (1) 
CN1C[C@H](C(=O)N[C@]2(C)O[C@@]3(O)[C@@H]4CCCN4C(=O)[C@H](Cc4ccccc4)N3C2=O)C[C@@H]2c3cccc4[nH]cc(c34)C[C@H]21

$$$$
