
     RDKit          3D

 19 19  0  0  0  0  0  0  0  0999 V2000
    3.0139   -0.7970   -1.1881 N   0  0  0  0  0  0  0  0  0  0  0  0
    3.4682    0.5899   -0.5747 C   0  0  1  0  0  0  0  0  0  0  0  0
    2.8311    0.2580    0.9242 C   0  0  0  0  0  0  0  0  0  0  0  0
    1.3922    0.0805    0.5500 C   0  0  0  0  0  0  0  0  0  0  0  0
    0.6312    1.2279    0.5586 C   0  0  0  0  0  0  0  0  0  0  0  0
   -0.6899    1.1486    0.2316 C   0  0  0  0  0  0  0  0  0  0  0  0
   -1.2852   -0.0340   -0.1043 C   0  0  0  0  0  0  0  0  0  0  0  0
   -2.6672   -0.1435   -0.4495 N   0  0  0  0  0  0  0  0  0  0  0  0
   -3.1628   -1.4790   -0.8149 C   0  0  0  0  0  0  0  0  0  0  0  0
   -4.1025   -1.9178    0.2827 C   0  0  0  0  0  0  0  0  0  0  0  0
   -4.7703   -3.5239   -0.0505 Cl  0  0  0  0  0  0  0  0  0  0  0  0
   -3.6070    0.9087   -0.4713 C   0  0  0  0  0  0  0  0  0  0  0  0
   -3.0983    2.2528   -0.0954 C   0  0  0  0  0  0  0  0  0  0  0  0
   -4.3319    3.4910   -0.1469 Cl  0  0  0  0  0  0  0  0  0  0  0  0
   -0.4914   -1.1741   -0.1033 C   0  0  0  0  0  0  0  0  0  0  0  0
    0.8288   -1.1291    0.2171 C   0  0  0  0  0  0  0  0  0  0  0  0
    4.9678    0.1188   -0.1935 C   0  0  0  0  0  0  0  0  0  0  0  0
    5.3449   -1.0080   -0.4174 O   0  0  0  0  0  0  0  0  0  0  0  0
    5.7283    1.1301    0.3972 O   0  0  0  0  0  0  0  0  0  0  0  0
  2  1  1  6
  2  3  1  0
  3  4  1  0
  4  5  2  0
  5  6  1  0
  6  7  2  0
  7  8  1  0
  8  9  1  0
  9 10  1  0
 10 11  1  0
  8 12  1  0
 12 13  1  0
 13 14  1  0
  7 15  1  0
 15 16  2  0
  2 17  1  0
 17 18  2  0
 17 19  1  0
 16  4  1  0
M  END
>  <zinc_id>  (1) 
ZINC000000001673

>  <smiles>  (1) 
N[C@@H](Cc1ccc(N(CCCl)CCCl)cc1)C(=O)O

$$$$
