
     RDKit          3D

 18 18  0  0  0  0  0  0  0  0999 V2000
   -2.7566   -2.7612    0.4191 C   0  0  0  0  0  0  0  0  0  0  0  0
   -2.8433   -1.2780    0.2947 C   0  0  0  0  0  0  0  0  0  0  0  0
   -3.9061   -0.5888    0.8542 C   0  0  0  0  0  0  0  0  0  0  0  0
   -4.0384    0.7821    0.7707 C   0  0  0  0  0  0  0  0  0  0  0  0
   -3.0447    1.4832    0.0874 C   0  0  0  0  0  0  0  0  0  0  0  0
   -3.1827    2.9360   -0.0024 C   0  0  0  0  0  0  0  0  0  0  0  0
   -1.9689    0.8361   -0.4849 C   0  0  0  0  0  0  0  0  0  0  0  0
   -1.0268    1.6139   -1.1463 O   0  0  0  0  0  0  0  0  0  0  0  0
    0.1087    1.1031   -1.7708 C   0  0  0  0  0  0  0  0  0  0  0  0
    0.9824    0.3748   -0.7562 C   0  0  0  0  0  0  0  0  0  0  0  0
    2.1804   -0.1447   -1.5021 C   0  0  0  0  0  0  0  0  0  0  0  0
    3.1368   -0.8932   -0.6085 C   0  0  0  0  0  0  0  0  0  0  0  0
    4.2993   -1.3723   -1.4436 C   0  0  0  0  0  0  0  0  0  0  0  0
    2.3741   -2.0337    0.0294 C   0  0  0  0  0  0  0  0  0  0  0  0
    3.6614   -0.0448    0.4860 C   0  0  0  0  0  0  0  0  0  0  0  0
    3.3525    1.1560    0.6576 O   0  0  0  0  0  0  0  0  0  0  0  0
    4.5532   -0.6332    1.3722 O   0  0  0  0  0  0  0  0  0  0  0  0
   -1.8813   -0.5352   -0.3744 C   0  0  0  0  0  0  0  0  0  0  0  0
  1  2  1  0
  2  3  2  0
  3  4  1  0
  4  5  2  0
  5  6  1  0
  5  7  1  0
  7  8  1  0
  8  9  1  0
  9 10  1  0
 10 11  1  0
 11 12  1  0
 12 13  1  0
 12 14  1  0
 12 15  1  0
 15 16  2  0
 15 17  1  0
  7 18  2  0
 18  2  1  0
M  END
>  <zinc_id>  (1) 
ZINC000001530641

>  <smiles>  (1) 
Cc1ccc(C)c(OCCCC(C)(C)C(=O)O)c1

$$$$
