
     RDKit          3D

 25 27  0  0  0  0  0  0  0  0999 V2000
    7.9975    2.0523    0.1199 C   0  0  0  0  0  0  0  0  0  0  0  0
    7.8617    2.0977    0.5201 O   0  0  0  0  0  0  0  0  0  0  0  0
    7.4097    2.2487    1.8519 C   0  0  0  0  0  0  0  0  0  0  0  0
    5.9253    2.4022    1.8054 C   0  0  0  0  0  0  0  0  0  0  0  0
    5.2455    1.1973    1.1804 C   0  0  0  0  0  0  0  0  0  0  0  0
    3.8509    1.3518    1.1417 O   0  0  0  0  0  0  0  0  0  0  0  0
    3.0068    0.4009    0.6237 C   0  0  0  0  0  0  0  0  0  0  0  0
    3.5298   -0.7661    0.1132 C   0  0  0  0  0  0  0  0  0  0  0  0
    2.6643   -1.7307   -0.4130 C   0  0  0  0  0  0  0  0  0  0  0  0
    1.3351   -1.5181   -0.4190 N   0  0  0  0  0  0  0  0  0  0  0  0
    0.8205   -0.3765    0.0802 C   0  0  0  0  0  0  0  0  0  0  0  0
   -0.6508   -0.2151    0.0385 C   0  0  0  0  0  0  0  0  0  0  0  0
   -1.4410   -1.6773   -0.7172 S   0  0  0  0  0  0  0  0  0  0  0  0
   -1.3397   -2.7499    0.3885 O   0  0  0  0  0  0  0  0  0  0  0  0
   -3.1791   -1.2327   -0.6462 C   0  0  0  0  0  0  0  0  0  0  0  0
   -3.7780   -0.5868   -1.6516 N   0  0  0  0  0  0  0  0  0  0  0  0
   -5.0675   -0.3851   -1.3260 C   0  0  0  0  0  0  0  0  0  0  0  0
   -6.0861    0.2315   -2.0268 C   0  0  0  0  0  0  0  0  0  0  0  0
   -7.3316    0.3004   -1.4487 C   0  0  0  0  0  0  0  0  0  0  0  0
   -7.5623   -0.2371   -0.1891 C   0  0  0  0  0  0  0  0  0  0  0  0
   -6.5227   -0.8461    0.4834 C   0  0  0  0  0  0  0  0  0  0  0  0
   -5.2708   -0.9277   -0.0718 C   0  0  0  0  0  0  0  0  0  0  0  0
   -4.0813   -1.4344    0.2995 N   0  0  0  0  0  0  0  0  0  0  0  0
    1.6523    0.5816    0.6006 C   0  0  0  0  0  0  0  0  0  0  0  0
    1.0114    1.8190    1.1350 C   0  0  0  0  0  0  0  0  0  0  0  0
  1  2  1  0
  2  3  1  0
  3  4  1  0
  4  5  1  0
  5  6  1  0
  6  7  1  0
  7  8  2  0
  8  9  1  0
  9 10  2  0
 10 11  1  0
 11 12  1  0
 13 12  1  1
 13 14  2  0
 13 15  1  0
 15 16  2  0
 16 17  1  0
 17 18  2  0
 18 19  1  0
 19 20  2  0
 20 21  1  0
 21 22  2  0
 22 23  1  0
 11 24  2  0
 24 25  1  0
 24  7  1  0
 23 15  1  0
 22 17  1  0
M  END
>  <zinc_id>  (1) 
ZINC000004618208

>  <smiles>  (1) 
COCCCOc1ccnc(C[S@@](=O)c2nc3ccccc3[nH]2)c1C

$$$$
