
     RDKit          3D

 33 33  0  0  0  0  0  0  0  0999 V2000
    3.1297   -0.4995   -0.4787 O   0  0  0  0  0  0  0  0  0  0  0  0
    2.6429   -0.0439   -0.3961 C   0  0  0  0  0  0  0  0  0  0  0  0
    3.1404    1.3099   -0.4190 N   0  0  0  0  0  0  0  0  0  0  0  0
    4.5404    1.5741   -0.6031 C   0  0  0  0  0  0  0  0  0  0  0  0
    5.3099    0.8354    0.6461 C   0  0  1  0  0  0  0  0  0  0  0  0
    6.6909    1.2734    0.1921 O   0  0  0  0  0  0  0  0  0  0  0  0
    5.1307    2.0904    1.6892 C   0  0  0  0  0  0  0  0  0  0  0  0
    5.2206    3.2575    0.9959 O   0  0  0  0  0  0  0  0  0  0  0  0
    1.1984   -0.2894   -0.2053 C   0  0  0  0  0  0  0  0  0  0  0  0
    0.2737    0.7217   -0.0454 C   0  0  0  0  0  0  0  0  0  0  0  0
    0.9601    2.6949   -0.0775 I   0  0  0  0  0  0  0  0  0  0  0  0
   -1.0695    0.4988    0.1327 C   0  0  0  0  0  0  0  0  0  0  0  0
   -2.0186    1.6296    0.2997 C   0  0  0  0  0  0  0  0  0  0  0  0
   -3.2360    1.3428    0.4537 O   0  0  0  0  0  0  0  0  0  0  0  0
   -1.6789    2.9398    0.2989 N   0  0  0  0  0  0  0  0  0  0  0  0
   -2.1899    4.1672    0.4021 C   0  0  0  0  0  0  0  0  0  0  0  0
   -3.2290    4.6553   -0.7228 C   0  0  2  0  0  0  0  0  0  0  0  0
   -4.2891    3.6343   -0.4688 O   0  0  0  0  0  0  0  0  0  0  0  0
   -2.5445    3.7903   -1.9694 C   0  0  0  0  0  0  0  0  0  0  0  0
   -1.4820    4.5881   -2.3840 O   0  0  0  0  0  0  0  0  0  0  0  0
   -1.4943   -0.8150    0.1494 C   0  0  0  0  0  0  0  0  0  0  0  0
   -3.5643   -1.1263    0.4275 I   0  0  0  0  0  0  0  0  0  0  0  0
   -0.6177   -1.8676   -0.0052 C   0  0  0  0  0  0  0  0  0  0  0  0
   -1.0070   -3.2201    0.0039 N   0  0  0  0  0  0  0  0  0  0  0  0
   -0.4211   -4.0443    1.0483 C   0  0  0  0  0  0  0  0  0  0  0  0
   -1.1795   -4.1365    2.3076 C   0  0  0  0  0  0  0  0  0  0  0  0
   -1.3869   -2.9412    2.9629 O   0  0  0  0  0  0  0  0  0  0  0  0
   -1.8915   -3.7327   -0.9618 C   0  0  0  0  0  0  0  0  0  0  0  0
   -2.3183   -2.9945   -1.8714 O   0  0  0  0  0  0  0  0  0  0  0  0
   -2.3195   -5.1456   -0.9045 C   0  0  0  0  0  0  0  0  0  0  0  0
   -3.1933   -5.4357   -1.9472 O   0  0  0  0  0  0  0  0  0  0  0  0
    0.7457   -1.5805   -0.1841 C   0  0  0  0  0  0  0  0  0  0  0  0
    2.1473   -3.1310   -0.4268 I   0  0  0  0  0  0  0  0  0  0  0  0
  1  2  2  0
  2  3  1  0
  3  4  1  0
  4  5  1  0
  5  6  1  6
  5  7  1  0
  7  8  1  0
  2  9  1  0
  9 10  2  0
 10 11  1  0
 10 12  1  0
 12 13  1  0
 13 14  2  0
 13 15  1  0
 15 16  1  0
 16 17  1  0
 17 18  1  1
 17 19  1  0
 19 20  1  0
 12 21  2  0
 21 22  1  0
 21 23  1  0
 23 24  1  0
 24 25  1  0
 25 26  1  0
 26 27  1  0
 24 28  1  0
 28 29  2  0
 28 30  1  0
 30 31  1  0
 23 32  2  0
 32 33  1  0
 32  9  1  0
M  END
>  <zinc_id>  (1) 
ZINC000008143866

>  <smiles>  (1) 
O=C(NC[C@H](O)CO)c1c(I)c(C(=O)NC[C@@H](O)CO)c(I)c(N(CCO)C(=O)CO)c1I

$$$$
