
     RDKit          3D

 20 22  0  0  0  0  0  0  0  0999 V2000
   -4.2288    1.8545    1.0390 C   0  0  0  0  0  0  0  0  0  0  0  0
   -2.8546    2.0981    0.9148 N   0  0  0  0  0  0  0  0  0  0  0  0
   -2.5374    1.3800   -0.4609 C   0  0  1  0  0  0  0  0  0  0  0  0
   -0.9140    1.8334   -0.4086 C   0  0  0  0  0  0  0  0  0  0  0  0
   -0.6235    1.2666   -1.7067 C   0  0  0  0  0  0  0  0  0  0  0  0
   -0.2904   -0.3339   -1.6098 C   0  0  1  0  0  0  0  0  0  0  0  0
    1.0695   -0.2532   -0.8691 C   0  0  0  0  0  0  0  0  0  0  0  0
    1.7110   -1.4480   -0.8460 C   0  0  0  0  0  0  0  0  0  0  0  0
    2.9704   -1.5985   -0.2212 C   0  0  0  0  0  0  0  0  0  0  0  0
    3.5306   -0.4902    0.3670 C   0  0  0  0  0  0  0  0  0  0  0  0
    5.0862   -0.5870    1.1622 Cl  0  0  0  0  0  0  0  0  0  0  0  0
    2.8506    0.6999    0.3224 C   0  0  0  0  0  0  0  0  0  0  0  0
    3.5483    2.1213    1.0660 Cl  0  0  0  0  0  0  0  0  0  0  0  0
    1.5967    0.8321   -0.3044 C   0  0  0  0  0  0  0  0  0  0  0  0
   -1.1776   -0.7353   -0.3381 C   0  0  0  0  0  0  0  0  0  0  0  0
   -0.7813   -1.9624    0.1499 C   0  0  0  0  0  0  0  0  0  0  0  0
   -1.4746   -2.4415    1.2502 C   0  0  0  0  0  0  0  0  0  0  0  0
   -2.5022   -1.7129    1.8106 C   0  0  0  0  0  0  0  0  0  0  0  0
   -2.8359   -0.4786    1.2504 C   0  0  0  0  0  0  0  0  0  0  0  0
   -2.1431   -0.0444    0.1841 C   0  0  0  0  0  0  0  0  0  0  0  0
  1  2  1  0
  3  2  1  1
  3  4  1  0
  4  5  1  0
  5  6  1  0
  6  7  1  1
  7  8  2  0
  8  9  1  0
  9 10  2  0
 10 11  1  0
 10 12  1  0
 12 13  1  0
 12 14  2  0
  6 15  1  0
 15 16  2  0
 16 17  1  0
 17 18  2  0
 18 19  1  0
 19 20  2  0
 20  3  1  0
 14  7  1  0
 20 15  1  0
M  END
>  <zinc_id>  (1) 
ZINC000001853550

>  <smiles>  (1) 
CN[C@H]1CC[C@@H](c2ccc(Cl)c(Cl)c2)c2ccccc21

$$$$
