
     RDKit          3D

 20 21  0  0  0  0  0  0  0  0999 V2000
   -4.1510   -2.1951    2.6882 C   0  0  0  0  0  0  0  0  0  0  0  0
   -3.9294   -1.4231    1.7251 O   0  0  0  0  0  0  0  0  0  0  0  0
   -2.6971   -0.9587    1.2619 C   0  0  0  0  0  0  0  0  0  0  0  0
   -1.5252   -1.3390    1.8711 C   0  0  0  0  0  0  0  0  0  0  0  0
   -0.3029   -0.8724    1.4031 C   0  0  0  0  0  0  0  0  0  0  0  0
   -0.2115   -0.0281    0.3335 C   0  0  0  0  0  0  0  0  0  0  0  0
    1.1845    0.4695   -0.1553 C   0  0  2  0  0  0  0  0  0  0  0  0
    0.7190    1.9643   -0.5579 C   0  0  0  0  0  0  0  0  0  0  0  0
    0.2087    2.5502    0.6881 N   0  0  0  0  0  0  0  0  0  0  0  0
    1.2406    2.7714    1.6480 C   0  0  0  0  0  0  0  0  0  0  0  0
   -0.4828    3.7884    0.4421 C   0  0  0  0  0  0  0  0  0  0  0  0
    1.1236   -0.1257   -1.6527 C   0  0  0  0  0  0  0  0  0  0  0  0
    0.0811    0.3903   -2.3463 O   0  0  0  0  0  0  0  0  0  0  0  0
    1.0041   -1.6206   -1.4959 C   0  0  0  0  0  0  0  0  0  0  0  0
    2.2894   -2.2846   -1.1120 C   0  0  0  0  0  0  0  0  0  0  0  0
    3.3523   -1.3406   -0.6632 C   0  0  0  0  0  0  0  0  0  0  0  0
    3.6471   -0.2513   -1.6497 C   0  0  0  0  0  0  0  0  0  0  0  0
    2.4148    0.2526   -2.3277 C   0  0  0  0  0  0  0  0  0  0  0  0
   -1.3639    0.3596   -0.2835 C   0  0  0  0  0  0  0  0  0  0  0  0
   -2.6014   -0.1072    0.1830 C   0  0  0  0  0  0  0  0  0  0  0  0
  1  2  1  0
  2  3  1  0
  3  4  2  0
  4  5  1  0
  5  6  2  0
  6  7  1  0
  7  8  1  6
  8  9  1  0
  9 10  1  0
  9 11  1  0
  7 12  1  0
 12 13  1  0
 12 14  1  0
 14 15  1  0
 15 16  1  0
 16 17  1  0
 17 18  1  0
  6 19  1  0
 19 20  2  0
 20  3  1  0
 18 12  1  0
M  END
>  <zinc_id>  (1) 
ZINC000000896698

>  <smiles>  (1) 
COc1ccc([C@H](CN(C)C)C2(O)CCCCC2)cc1

$$$$
