
     RDKit          3D

 21 23  0  0  0  0  0  0  0  0999 V2000
   -0.0319   -2.1207    3.3331 O   0  0  0  0  0  0  0  0  0  0  0  0
    0.2955   -1.4492    2.4088 C   0  0  0  0  0  0  0  0  0  0  0  0
    1.4007   -0.5531    2.4320 N   0  0  0  0  0  0  0  0  0  0  0  0
    1.7319    0.2167    1.2895 C   0  0  0  0  0  0  0  0  0  0  0  0
    2.8124    1.0963    1.3042 C   0  0  0  0  0  0  0  0  0  0  0  0
    3.1263    1.8397    0.1893 C   0  0  0  0  0  0  0  0  0  0  0  0
    2.3887    1.7408   -0.9708 C   0  0  0  0  0  0  0  0  0  0  0  0
    2.8093    2.7076   -2.3971 Cl  0  0  0  0  0  0  0  0  0  0  0  0
    1.3257    0.8790   -0.9935 C   0  0  0  0  0  0  0  0  0  0  0  0
    0.9973    0.1130    0.1455 C   0  0  0  0  0  0  0  0  0  0  0  0
   -0.1638   -0.8055    0.0688 C   0  0  1  0  0  0  0  0  0  0  0  0
   -1.3509    0.0470   -0.2332 C   0  0  0  0  0  0  0  0  0  0  0  0
   -2.3067    0.7455   -0.4584 C   0  0  0  0  0  0  0  0  0  0  0  0
   -3.4754    1.5815   -0.7234 C   0  0  0  0  0  0  0  0  0  0  0  0
   -4.1714    2.1123    0.4573 C   0  0  0  0  0  0  0  0  0  0  0  0
   -4.7812    0.9747   -0.3952 C   0  0  0  0  0  0  0  0  0  0  0  0
   -0.0479   -1.7215   -1.1434 C   0  0  0  0  0  0  0  0  0  0  0  0
   -0.0087   -0.9337   -2.2646 F   0  0  0  0  0  0  0  0  0  0  0  0
    1.0699   -2.4985   -1.0957 F   0  0  0  0  0  0  0  0  0  0  0  0
   -1.2095   -2.4610   -1.1976 F   0  0  0  0  0  0  0  0  0  0  0  0
   -0.4102   -1.5107    1.2228 O   0  0  0  0  0  0  0  0  0  0  0  0
  1  2  2  0
  2  3  1  0
  3  4  1  0
  4  5  2  0
  5  6  1  0
  6  7  2  0
  7  8  1  0
  7  9  1  0
  9 10  2  0
 10 11  1  0
 11 12  1  6
 12 13  3  0
 13 14  1  0
 14 15  1  0
 15 16  1  0
 11 17  1  0
 17 18  1  0
 17 19  1  0
 17 20  1  0
 11 21  1  0
 21  2  1  0
 10  4  1  0
 16 14  1  0
M  END
>  <zinc_id>  (1) 
ZINC000002020233

>  <smiles>  (1) 
O=C1Nc2ccc(Cl)cc2[C@@](C#CC2CC2)(C(F)(F)F)O1

$$$$
