
     RDKit          3D

 22 24  0  0  0  0  0  0  0  0999 V2000
   -0.1062   -0.8913   -3.0585 C   0  0  0  0  0  0  0  0  0  0  0  0
    0.1260   -0.9583   -2.7767 C   0  0  0  0  0  0  0  0  0  0  0  0
    1.0791   -1.2643   -1.6502 C   0  0  0  0  0  0  0  0  0  0  0  0
    1.0365   -0.1872   -0.6620 N   0  0  0  0  0  0  0  0  0  0  0  0
    1.5921    1.0172   -1.2344 C   0  0  0  0  0  0  0  0  0  0  0  0
    3.0386    0.8596   -1.4881 C   0  0  0  0  0  0  0  0  0  0  0  0
    3.8236    0.5699   -0.2637 C   0  0  0  0  0  0  0  0  0  0  0  0
    5.1705    0.3868   -0.2719 C   0  0  0  0  0  0  0  0  0  0  0  0
    5.7667    0.1328    0.8834 C   0  0  0  0  0  0  0  0  0  0  0  0
    5.0199    0.0674    2.0059 C   0  0  0  0  0  0  0  0  0  0  0  0
    3.4376    0.3769    1.3838 S   0  0  0  0  0  0  0  0  0  0  0  0
   -0.5128    0.2301   -0.6540 C   0  0  2  0  0  0  0  0  0  0  0  0
   -0.3440    1.1351    0.7092 C   0  0  0  0  0  0  0  0  0  0  0  0
   -1.7346    1.4883    1.1308 C   0  0  0  0  0  0  0  0  0  0  0  0
   -2.7156    0.4147    0.8925 C   0  0  0  0  0  0  0  0  0  0  0  0
   -4.0547    0.7394    1.1402 C   0  0  0  0  0  0  0  0  0  0  0  0
   -4.3971    2.0132    1.5858 O   0  0  0  0  0  0  0  0  0  0  0  0
   -4.9970   -0.2222    0.9331 C   0  0  0  0  0  0  0  0  0  0  0  0
   -4.6270   -1.4721    0.4931 C   0  0  0  0  0  0  0  0  0  0  0  0
   -3.3148   -1.7904    0.2503 C   0  0  0  0  0  0  0  0  0  0  0  0
   -2.3596   -0.8472    0.4499 C   0  0  0  0  0  0  0  0  0  0  0  0
   -0.9271   -1.1389    0.2012 C   0  0  0  0  0  0  0  0  0  0  0  0
  1  2  1  0
  2  3  1  0
  3  4  1  0
  4  5  1  0
  5  6  1  0
  6  7  1  0
  7  8  2  0
  8  9  1  0
  9 10  2  0
 10 11  1  0
 12  4  1  1
 12 13  1  0
 13 14  1  0
 14 15  1  0
 15 16  2  0
 16 17  1  0
 16 18  1  0
 18 19  2  0
 19 20  1  0
 20 21  2  0
 21 22  1  0
 11  7  1  0
 22 12  1  0
 21 15  1  0
M  END
>  <zinc_id>  (1) 
ZINC000000005151

>  <smiles>  (1) 
CCCN(CCc1cccs1)[C@@H]1CCc2c(O)cccc2C1

$$$$
