
     RDKit          3D

 21 22  0  0  0  0  0  0  0  0999 V2000
    6.0607   -1.8766   -0.9510 C   0  0  0  0  0  0  0  0  0  0  0  0
    4.8453   -1.1111   -0.5221 C   0  0  0  0  0  0  0  0  0  0  0  0
    4.2287   -1.3503    0.6873 C   0  0  0  0  0  0  0  0  0  0  0  0
    3.1096   -0.6454    1.0821 C   0  0  0  0  0  0  0  0  0  0  0  0
    2.5522    0.3372    0.2807 C   0  0  0  0  0  0  0  0  0  0  0  0
    1.1336    1.2327    0.7781 S   0  0  0  0  0  0  0  0  0  0  0  0
    1.2216    2.6636    0.3013 O   0  0  0  0  0  0  0  0  0  0  0  0
    1.0913    1.3098    2.2952 O   0  0  0  0  0  0  0  0  0  0  0  0
   -0.3200    0.4802    0.2761 N   0  0  0  0  0  0  0  0  0  0  0  0
   -0.6295    0.3158   -0.9474 C   0  0  0  0  0  0  0  0  0  0  0  0
    0.2490    0.7658   -1.9250 O   0  0  0  0  0  0  0  0  0  0  0  0
   -1.8605   -0.3209   -1.2427 N   0  0  0  0  0  0  0  0  0  0  0  0
   -2.9338   -0.3861   -0.3701 N   0  0  0  0  0  0  0  0  0  0  0  0
   -2.9131    0.5712    0.6812 C   0  0  0  0  0  0  0  0  0  0  0  0
   -4.3502    0.8229    1.1216 C   0  0  0  0  0  0  0  0  0  0  0  0
   -5.3060    0.7688   -0.0286 C   0  0  0  0  0  0  0  0  0  0  0  0
   -5.5323   -0.6589   -0.4616 C   0  0  0  0  0  0  0  0  0  0  0  0
   -4.7972   -1.6463    0.4212 C   0  0  0  0  0  0  0  0  0  0  0  0
   -3.3263   -1.7024    0.0017 C   0  0  0  0  0  0  0  0  0  0  0  0
    3.1794    0.5650   -0.9248 C   0  0  0  0  0  0  0  0  0  0  0  0
    4.2976   -0.1349   -1.3264 C   0  0  0  0  0  0  0  0  0  0  0  0
  1  2  1  0
  2  3  2  0
  3  4  1  0
  4  5  2  0
  5  6  1  0
  6  7  2  0
  6  8  2  0
  6  9  1  0
  9 10  2  0
 10 11  1  0
 10 12  1  0
 12 13  1  0
 13 14  1  0
 14 15  1  0
 15 16  1  0
 16 17  1  0
 17 18  1  0
 18 19  1  0
  5 20  1  0
 20 21  2  0
 21  2  1  0
 19 13  1  0
M  END
>  <zinc_id>  (1) 
ZINC000000057512

>  <smiles>  (1) 
Cc1ccc(S(=O)(=O)/N=C(\O)NN2CCCCCC2)cc1

$$$$
