
     RDKit          3D

 10 10  0  0  0  0  0  0  0  0999 V2000
    1.8170   -1.4219    0.8952 C   0  0  0  0  0  0  0  0  0  0  0  0
    2.4745   -0.3777   -0.2026 C   0  0  2  0  0  0  0  0  0  0  0  0
    1.9107    0.9016    0.5308 N   0  0  0  0  0  0  0  0  0  0  0  0
    1.2243   -0.4940   -1.2625 C   0  0  0  0  0  0  0  0  0  0  0  0
   -0.0103   -0.0703   -0.6392 C   0  0  0  0  0  0  0  0  0  0  0  0
   -0.7717   -1.0245    0.0101 C   0  0  0  0  0  0  0  0  0  0  0  0
   -1.9554   -0.7441    0.6352 C   0  0  0  0  0  0  0  0  0  0  0  0
   -2.4520    0.5214    0.6474 C   0  0  0  0  0  0  0  0  0  0  0  0
   -1.7132    1.5002    0.0058 C   0  0  0  0  0  0  0  0  0  0  0  0
   -0.5239    1.2093   -0.6203 C   0  0  0  0  0  0  0  0  0  0  0  0
  2  1  1  1
  2  3  1  0
  2  4  1  0
  4  5  1  0
  5  6  2  0
  6  7  1  0
  7  8  2  0
  8  9  1  0
  9 10  2  0
 10  5  1  0
M  END
>  <zinc_id>  (1) 
ZINC000006021033

>  <smiles>  (1) 
C[C@H](N)Cc1ccccc1

$$$$
