
     RDKit          3D

 25 29  0  0  0  0  0  0  0  0999 V2000
   -1.7929   -2.3627   -2.7289 O   0  0  0  0  0  0  0  0  0  0  0  0
   -1.3198   -1.7025   -1.7680 C   0  0  0  0  0  0  0  0  0  0  0  0
   -0.3633   -0.7046   -1.7457 O   0  0  0  0  0  0  0  0  0  0  0  0
   -0.1195   -0.2231   -0.4441 C   0  0  0  0  0  0  0  0  0  0  0  0
   -1.0470   -1.0350    0.4199 C   0  0  0  0  0  0  0  0  0  0  0  0
   -1.3004   -1.0615    1.7683 C   0  0  0  0  0  0  0  0  0  0  0  0
   -2.2200   -1.9223    2.3081 C   0  0  0  0  0  0  0  0  0  0  0  0
   -2.9333   -2.8016    1.5212 C   0  0  0  0  0  0  0  0  0  0  0  0
   -2.6814   -2.7760    0.1767 C   0  0  0  0  0  0  0  0  0  0  0  0
   -1.7519   -1.9078   -0.3798 C   0  0  0  0  0  0  0  0  0  0  0  0
    1.2788   -0.4583   -0.0636 C   0  0  0  0  0  0  0  0  0  0  0  0
    1.7021   -1.7968   -0.1055 C   0  0  0  0  0  0  0  0  0  0  0  0
    2.9928   -2.1083    0.2340 C   0  0  0  0  0  0  0  0  0  0  0  0
    3.8720   -1.1117    0.6150 C   0  0  0  0  0  0  0  0  0  0  0  0
    5.1760   -1.4038    0.9607 O   0  0  0  0  0  0  0  0  0  0  0  0
    3.4396    0.1997    0.6508 C   0  0  0  0  0  0  0  0  0  0  0  0
    2.1348    0.5430    0.3112 C   0  0  0  0  0  0  0  0  0  0  0  0
    1.7293    1.8573    0.3553 O   0  0  0  0  0  0  0  0  0  0  0  0
    0.4242    2.2063    0.0163 C   0  0  0  0  0  0  0  0  0  0  0  0
    0.0229    3.5467    0.0648 C   0  0  0  0  0  0  0  0  0  0  0  0
   -1.2557    3.9374   -0.2613 C   0  0  0  0  0  0  0  0  0  0  0  0
   -1.6449    5.2801   -0.2089 O   0  0  0  0  0  0  0  0  0  0  0  0
   -2.1420    2.9539   -0.6427 C   0  0  0  0  0  0  0  0  0  0  0  0
   -1.7484    1.6383   -0.6905 C   0  0  0  0  0  0  0  0  0  0  0  0
   -0.4520    1.2134   -0.3634 C   0  0  0  0  0  0  0  0  0  0  0  0
  1  2  2  0
  2  3  1  0
  3  4  1  0
  4  5  1  0
  5  6  2  0
  6  7  1  0
  7  8  2  0
  8  9  1  0
  9 10  2  0
  4 11  1  0
 11 12  2  0
 12 13  1  0
 13 14  2  0
 14 15  1  0
 14 16  1  0
 16 17  2  0
 17 18  1  0
 18 19  1  0
 19 20  2  0
 20 21  1  0
 21 22  1  0
 21 23  2  0
 23 24  1  0
 24 25  2  0
 10  2  1  0
 17 11  1  0
 25 19  1  0
 25  4  1  0
 10  5  1  0
M  END
>  <zinc_id>  (1) 
ZINC000003860453

>  <smiles>  (1) 
O=C1OC2(c3ccc(O)cc3Oc3cc(O)ccc32)c2ccccc21

$$$$
