
     RDKit          3D

 32 36  0  0  0  0  0  0  0  0999 V2000
   -3.4076    4.3918   -0.0269 C   0  0  0  0  0  0  0  0  0  0  0  0
   -3.1955    3.5810   -1.2941 C   0  0  0  0  0  0  0  0  0  0  0  0
   -2.9694    2.1280   -0.9431 C   0  0  0  0  0  0  0  0  0  0  0  0
   -4.1455    1.5435   -0.2043 C   0  0  0  0  0  0  0  0  0  0  0  0
   -3.8250    0.0964    0.0999 C   0  0  0  0  0  0  0  0  0  0  0  0
   -4.5416   -0.8592   -0.3790 N   0  0  0  0  0  0  0  0  0  0  0  0
   -4.0580   -2.1343    0.0361 C   0  0  0  0  0  0  0  0  0  0  0  0
   -3.6770   -3.0288   -1.1209 C   0  0  0  0  0  0  0  0  0  0  0  0
   -4.0304   -4.4198   -0.6879 C   0  0  0  0  0  0  0  0  0  0  0  0
   -4.6762   -4.3117    0.6755 C   0  0  0  0  0  0  0  0  0  0  0  0
   -5.1392   -2.8705    0.7956 C   0  0  0  0  0  0  0  0  0  0  0  0
   -2.8992   -1.8105    0.8954 C   0  0  0  0  0  0  0  0  0  0  0  0
   -2.1352   -2.5891    1.5197 O   0  0  0  0  0  0  0  0  0  0  0  0
   -2.7761   -0.3972    0.9062 N   0  0  0  0  0  0  0  0  0  0  0  0
   -1.7970    0.3861    1.6072 C   0  0  0  0  0  0  0  0  0  0  0  0
   -0.5286    0.5828    0.8880 C   0  0  0  0  0  0  0  0  0  0  0  0
    0.2622    1.6680    1.1865 C   0  0  0  0  0  0  0  0  0  0  0  0
    1.4721    1.8976    0.5499 C   0  0  0  0  0  0  0  0  0  0  0  0
    1.9219    1.0076   -0.4320 C   0  0  0  0  0  0  0  0  0  0  0  0
    3.1811    1.2124   -1.1329 C   0  0  0  0  0  0  0  0  0  0  0  0
    3.2009    1.9316   -2.3425 C   0  0  0  0  0  0  0  0  0  0  0  0
    4.3843    2.1402   -3.0096 C   0  0  0  0  0  0  0  0  0  0  0  0
    5.5840    1.6618   -2.5301 C   0  0  0  0  0  0  0  0  0  0  0  0
    5.5732    0.9587   -1.3503 C   0  0  0  0  0  0  0  0  0  0  0  0
    4.3742    0.7389   -0.6609 C   0  0  0  0  0  0  0  0  0  0  0  0
    4.4179   -0.0189    0.5833 C   0  0  0  0  0  0  0  0  0  0  0  0
    5.5896   -0.5011    1.1014 N   0  0  0  0  0  0  0  0  0  0  0  0
    5.3370   -1.1452    2.2190 N   0  0  0  0  0  0  0  0  0  0  0  0
    4.0331   -1.0719    2.4034 N   0  0  0  0  0  0  0  0  0  0  0  0
    3.4652   -0.3978    1.4285 N   0  0  0  0  0  0  0  0  0  0  0  0
    1.1066   -0.0668   -0.7056 C   0  0  0  0  0  0  0  0  0  0  0  0
   -0.1021   -0.3037   -0.0756 C   0  0  0  0  0  0  0  0  0  0  0  0
  1  2  1  0
  2  3  1  0
  3  4  1  0
  4  5  1  0
  5  6  2  0
  6  7  1  0
  7  8  1  0
  8  9  1  0
  9 10  1  0
 10 11  1  0
  7 12  1  0
 12 13  2  0
 12 14  1  0
 14 15  1  0
 15 16  1  0
 16 17  2  0
 17 18  1  0
 18 19  2  0
 19 20  1  0
 20 21  2  0
 21 22  1  0
 22 23  2  0
 23 24  1  0
 24 25  2  0
 25 26  1  0
 26 27  1  0
 27 28  2  0
 28 29  1  0
 29 30  1  0
 19 31  1  0
 31 32  2  0
 14  5  1  0
 32 16  1  0
 11  7  1  0
 25 20  1  0
 30 26  2  0
M  END
>  <zinc_id>  (1) 
ZINC000003872931

>  <smiles>  (1) 
CCCCC1=NC2(CCCC2)C(=O)N1Cc1ccc(-c2ccccc2-c2nn[nH]n2)cc1

$$$$
