
     RDKit          3D

 29 32  0  0  0  0  0  0  0  0999 V2000
    3.7633    1.2104    2.2149 C   0  0  0  0  0  0  0  0  0  0  0  0
    3.1260   -0.2290    1.8657 C   0  0  1  0  0  0  0  0  0  0  0  0
    1.5938    0.2381    2.2370 C   0  0  0  0  0  0  0  0  0  0  0  0
    0.9895   -0.4736    0.9465 C   0  0  1  0  0  0  0  0  0  0  0  0
   -0.4046    0.4250    0.7578 C   0  0  2  0  0  0  0  0  0  0  0  0
   -1.2144   -0.3198    1.9142 C   0  0  0  0  0  0  0  0  0  0  0  0
   -2.6742    0.3911    1.8628 C   0  0  2  0  0  0  0  0  0  0  0  0
   -3.3977   -0.8119    2.3838 F   0  0  0  0  0  0  0  0  0  0  0  0
   -3.1067    0.1249    0.3127 C   0  0  0  0  0  0  0  0  0  0  0  0
   -4.4021   -0.0692    0.1975 C   0  0  0  0  0  0  0  0  0  0  0  0
   -4.9866   -0.3189   -1.1019 C   0  0  0  0  0  0  0  0  0  0  0  0
   -6.2156   -0.5072   -1.2204 O   0  0  0  0  0  0  0  0  0  0  0  0
   -4.0243   -0.3242   -2.1951 C   0  0  0  0  0  0  0  0  0  0  0  0
   -2.7661   -0.1242   -2.0317 C   0  0  0  0  0  0  0  0  0  0  0  0
   -2.1319    0.1319   -0.7589 C   0  0  1  0  0  0  0  0  0  0  0  0
   -1.8522    1.6738   -0.8161 C   0  0  0  0  0  0  0  0  0  0  0  0
   -0.9511   -0.5370   -0.3977 C   0  0  2  0  0  0  0  0  0  0  0  0
   -0.9602   -1.8292    0.0370 F   0  0  0  0  0  0  0  0  0  0  0  0
    0.2483   -0.7662   -1.4311 C   0  0  1  0  0  0  0  0  0  0  0  0
   -0.4530   -0.3017   -2.6652 O   0  0  0  0  0  0  0  0  0  0  0  0
    1.0684    0.6250   -1.2091 C   0  0  0  0  0  0  0  0  0  0  0  0
    1.7893    0.5852    0.0160 C   0  0  1  0  0  0  0  0  0  0  0  0
    1.6776    1.9729    0.6622 C   0  0  0  0  0  0  0  0  0  0  0  0
    3.0577   -0.0097    0.2709 C   0  0  2  0  0  0  0  0  0  0  0  0
    3.0086   -1.3762   -0.1263 O   0  0  0  0  0  0  0  0  0  0  0  0
    4.2776    0.5601   -0.2383 C   0  0  0  0  0  0  0  0  0  0  0  0
    4.5032    1.7680   -0.0879 O   0  0  0  0  0  0  0  0  0  0  0  0
    5.3292   -0.1859   -0.9516 C   0  0  0  0  0  0  0  0  0  0  0  0
    5.1082   -1.5225   -1.1279 O   0  0  0  0  0  0  0  0  0  0  0  0
  2  1  1  1
  2  3  1  0
  4  3  1  1
  4  5  1  0
  5  6  1  1
  6  7  1  0
  7  8  1  1
  7  9  1  0
  9 10  2  0
 10 11  1  0
 11 12  2  0
 11 13  1  0
 13 14  2  0
 14 15  1  0
 15 16  1  6
 15 17  1  0
 17 18  1  1
 17 19  1  0
 19 20  1  6
 19 21  1  0
 21 22  1  0
 22 23  1  1
 22 24  1  0
 24 25  1  6
 24 26  1  0
 26 27  2  0
 26 28  1  0
 28 29  1  0
 24  2  1  0
 22  4  1  0
 17  5  1  0
 15  9  1  0
M  END
>  <zinc_id>  (1) 
ZINC000005752191

>  <smiles>  (1) 
C[C@H]1C[C@H]2[C@@H]3C[C@H](F)C4=CC(=O)C=C[C@]4(C)[C@@]3(F)[C@@H](O)C[C@]2(C)[C@@]1(O)C(=O)CO

$$$$
