
     RDKit          3D

 36 40  0  0  0  0  0  0  0  0999 V2000
    9.2850   -1.2395    2.1844 C   0  0  0  0  0  0  0  0  0  0  0  0
    9.1446   -1.1842    1.6468 C   0  0  0  0  0  0  0  0  0  0  0  0
   10.0965   -1.6320    0.9391 O   0  0  0  0  0  0  0  0  0  0  0  0
    7.9858   -0.6633    1.0705 N   0  0  0  0  0  0  0  0  0  0  0  0
    7.8333   -0.6178   -0.3749 C   0  0  0  0  0  0  0  0  0  0  0  0
    6.5661    0.0952   -0.7751 C   0  0  0  0  0  0  0  0  0  0  0  0
    5.4511   -0.2962    0.0522 N   0  0  0  0  0  0  0  0  0  0  0  0
    4.1237   -0.1913   -0.4474 C   0  0  0  0  0  0  0  0  0  0  0  0
    3.0319   -0.5549    0.3122 C   0  0  0  0  0  0  0  0  0  0  0  0
    1.7386   -0.4572   -0.1630 C   0  0  0  0  0  0  0  0  0  0  0  0
    1.4700    0.0128   -1.4317 C   0  0  0  0  0  0  0  0  0  0  0  0
    0.1701    0.1101   -1.9070 O   0  0  0  0  0  0  0  0  0  0  0  0
   -0.9884   -0.2293   -1.2217 C   0  0  0  0  0  0  0  0  0  0  0  0
   -2.1214    0.1322   -2.3560 C   0  0  2  0  0  0  0  0  0  0  0  0
   -2.2206    1.7225   -1.9483 C   0  0  0  0  0  0  0  0  0  0  0  0
   -2.3732    1.5766   -0.6082 O   0  0  0  0  0  0  0  0  0  0  0  0
   -3.2024    0.5369   -0.4360 C   0  0  1  0  0  0  0  0  0  0  0  0
   -2.8249   -0.2765    0.7977 C   0  0  0  0  0  0  0  0  0  0  0  0
   -3.7080   -1.3838    0.9798 N   0  0  0  0  0  0  0  0  0  0  0  0
   -3.5838   -2.6253    0.4937 C   0  0  0  0  0  0  0  0  0  0  0  0
   -4.6487   -3.3549    0.9129 C   0  0  0  0  0  0  0  0  0  0  0  0
   -5.4315   -2.5543    1.6619 N   0  0  0  0  0  0  0  0  0  0  0  0
   -4.8441   -1.3505    1.6947 C   0  0  0  0  0  0  0  0  0  0  0  0
   -4.5672    1.0962   -0.1408 C   0  0  0  0  0  0  0  0  0  0  0  0
   -5.6475    0.8358   -0.9313 C   0  0  0  0  0  0  0  0  0  0  0  0
   -6.8559    1.3975   -0.5718 C   0  0  0  0  0  0  0  0  0  0  0  0
   -7.0224    2.1968    0.5304 C   0  0  0  0  0  0  0  0  0  0  0  0
   -8.5870    2.8880    0.9432 Cl  0  0  0  0  0  0  0  0  0  0  0  0
   -5.9207    2.4497    1.3182 C   0  0  0  0  0  0  0  0  0  0  0  0
   -4.6922    1.8917    0.9717 C   0  0  0  0  0  0  0  0  0  0  0  0
   -3.3366    2.2519    2.0110 Cl  0  0  0  0  0  0  0  0  0  0  0  0
   -3.2948   -0.2752   -1.4965 O   0  0  0  0  0  0  0  0  0  0  0  0
    2.5610    0.3771   -2.1932 C   0  0  0  0  0  0  0  0  0  0  0  0
    3.8527    0.2782   -1.7152 C   0  0  0  0  0  0  0  0  0  0  0  0
    5.6408   -0.8014    1.3983 C   0  0  0  0  0  0  0  0  0  0  0  0
    6.9200   -0.1613    1.8997 C   0  0  0  0  0  0  0  0  0  0  0  0
  1  2  1  0
  2  3  2  0
  2  4  1  0
  4  5  1  0
  5  6  1  0
  6  7  1  0
  7  8  1  0
  8  9  2  0
  9 10  1  0
 10 11  2  0
 11 12  1  0
 12 13  1  0
 14 13  1  1
 14 15  1  0
 15 16  1  0
 16 17  1  0
 17 18  1  1
 18 19  1  0
 19 20  1  0
 20 21  2  0
 21 22  1  0
 22 23  2  0
 17 24  1  0
 24 25  2  0
 25 26  1  0
 26 27  2  0
 27 28  1  0
 27 29  1  0
 29 30  2  0
 30 31  1  0
 17 32  1  0
 11 33  1  0
 33 34  2  0
  7 35  1  0
 35 36  1  0
 36  4  1  0
 34  8  1  0
 32 14  1  0
 23 19  1  0
 30 24  1  0
M  END
>  <zinc_id>  (1) 
ZINC000000643153

>  <smiles>  (1) 
CC(=O)N1CCN(c2ccc(OC[C@@H]3CO[C@@](Cn4ccnc4)(c4ccc(Cl)cc4Cl)O3)cc2)CC1

$$$$
