
     RDKit          3D

 15 15  0  0  0  0  0  0  0  0999 V2000
    4.0018   -1.0043   -0.5393 C   0  0  0  0  0  0  0  0  0  0  0  0
    3.6717    0.1617   -1.2308 C   0  0  0  0  0  0  0  0  0  0  0  0
    4.8543    0.9390   -1.7806 C   0  0  0  0  0  0  0  0  0  0  0  0
    2.7460    1.1389   -0.6110 C   0  0  0  0  0  0  0  0  0  0  0  0
    1.3916    0.5473   -0.3149 C   0  0  0  0  0  0  0  0  0  0  0  0
    0.3722    0.5822   -1.2281 C   0  0  0  0  0  0  0  0  0  0  0  0
   -0.8657    0.0445   -0.9646 C   0  0  0  0  0  0  0  0  0  0  0  0
   -1.1088   -0.5338    0.2054 C   0  0  0  0  0  0  0  0  0  0  0  0
   -2.5225   -1.1786    0.5700 C   0  0  1  0  0  0  0  0  0  0  0  0
   -2.6391   -0.4687    2.0677 C   0  0  0  0  0  0  0  0  0  0  0  0
   -3.4112   -0.1074   -0.2172 C   0  0  0  0  0  0  0  0  0  0  0  0
   -4.0893   -0.6556   -1.0931 O   0  0  0  0  0  0  0  0  0  0  0  0
   -3.4255    1.1845    0.0270 O   0  0  0  0  0  0  0  0  0  0  0  0
   -0.1192   -0.5989    1.1658 C   0  0  0  0  0  0  0  0  0  0  0  0
    1.1436   -0.0509    0.8982 C   0  0  0  0  0  0  0  0  0  0  0  0
  1  2  1  0
  2  3  1  0
  2  4  1  0
  4  5  1  0
  5  6  2  0
  6  7  1  0
  7  8  2  0
  8  9  1  0
  9 10  1  1
  9 11  1  0
 11 12  2  0
 11 13  1  0
  8 14  1  0
 14 15  2  0
 15  5  1  0
M  END
>  <zinc_id>  (1) 
ZINC000000113398

>  <smiles>  (1) 
CC(C)Cc1ccc([C@@H](C)C(=O)O)cc1

$$$$
