
     RDKit          3D

 17 18  0  0  0  0  0  0  0  0999 V2000
   -3.0664    1.6325   -1.4664 C   0  0  0  0  0  0  0  0  0  0  0  0
   -3.1900   -0.0229   -1.4116 C   0  0  2  0  0  0  0  0  0  0  0  0
   -4.6818    0.0401   -1.1183 O   0  0  0  0  0  0  0  0  0  0  0  0
   -2.7212   -0.0686    0.2552 C   0  0  1  0  0  0  0  0  0  0  0  0
   -3.4837   -1.3527    0.5384 O   0  0  0  0  0  0  0  0  0  0  0  0
   -1.2858   -1.0093   -0.0689 C   0  0  2  0  0  0  0  0  0  0  0  0
   -0.9882   -1.1762    1.5170 C   0  0  0  0  0  0  0  0  0  0  0  0
   -0.1087   -0.1802    2.0130 N   0  0  0  0  0  0  0  0  0  0  0  0
    1.1416   -0.0062    1.3608 C   0  0  0  0  0  0  0  0  0  0  0  0
    2.3605   -0.0313    1.9286 N   0  0  0  0  0  0  0  0  0  0  0  0
    3.4440    0.1703    1.1250 C   0  0  0  0  0  0  0  0  0  0  0  0
    4.7667    0.1592    1.6477 N   0  0  0  0  0  0  0  0  0  0  0  0
    3.2708    0.3855   -0.1940 N   0  0  0  0  0  0  0  0  0  0  0  0
    2.0666    0.4162   -0.7897 C   0  0  0  0  0  0  0  0  0  0  0  0
    1.8827    0.6142   -2.0098 O   0  0  0  0  0  0  0  0  0  0  0  0
    0.9653    0.2153    0.0054 C   0  0  0  0  0  0  0  0  0  0  0  0
   -0.3725    0.2141   -0.3875 N   0  0  0  0  0  0  0  0  0  0  0  0
  2  1  1  1
  2  3  1  0
  2  4  1  0
  4  5  1  1
  4  6  1  0
  6  7  1  1
  7  8  1  0
  8  9  1  0
  9 10  1  0
 10 11  2  0
 11 12  1  0
 11 13  1  0
 13 14  1  0
 14 15  2  0
 14 16  1  0
 16 17  1  0
 17  6  1  0
 16  9  2  0
M  END
>  <zinc_id>  (1) 
ZINC000004228257

>  <smiles>  (1) 
C[C@H](O)[C@@H](O)[C@@H]1CNc2nc(N)[nH]c(=O)c2N1

$$$$
