
     RDKit          3D

 23 24  0  0  0  0  0  0  0  0999 V2000
    0.7024   -2.3213    2.6285 C   0  0  0  0  0  0  0  0  0  0  0  0
    0.7122   -1.0249    2.0445 O   0  0  0  0  0  0  0  0  0  0  0  0
   -0.4070   -0.5467    1.3684 C   0  0  0  0  0  0  0  0  0  0  0  0
   -1.3915    0.1522    2.0175 C   0  0  0  0  0  0  0  0  0  0  0  0
   -1.2289    0.3954    3.4894 C   0  0  0  0  0  0  0  0  0  0  0  0
   -2.4988    0.6207    1.3241 C   0  0  0  0  0  0  0  0  0  0  0  0
   -2.6509    0.4012   -0.0316 C   0  0  0  0  0  0  0  0  0  0  0  0
   -1.6409   -0.3087   -0.6616 C   0  0  0  0  0  0  0  0  0  0  0  0
   -1.7913   -0.5349   -2.0440 O   0  0  0  0  0  0  0  0  0  0  0  0
   -0.5317   -0.7815    0.0070 C   0  0  0  0  0  0  0  0  0  0  0  0
    0.5482   -1.5379   -0.7081 C   0  0  0  0  0  0  0  0  0  0  0  0
    1.7003   -0.6318   -0.9350 C   0  0  0  0  0  0  0  0  0  0  0  0
    2.2160   -0.3302   -2.0965 C   0  0  0  0  0  0  0  0  0  0  0  0
    1.5922   -0.9567   -3.3123 C   0  0  0  0  0  0  0  0  0  0  0  0
    3.3611    0.5974   -2.3221 C   0  0  0  0  0  0  0  0  0  0  0  0
    3.9263    1.1652   -1.0471 C   0  0  0  0  0  0  0  0  0  0  0  0
    4.4502    0.0076   -0.2459 C   0  0  0  0  0  0  0  0  0  0  0  0
    5.2664   -0.7630   -0.8703 O   0  0  0  0  0  0  0  0  0  0  0  0
    4.0970   -0.2326    1.0601 O   0  0  0  0  0  0  0  0  0  0  0  0
   -3.9024    1.0147   -0.4771 C   0  0  0  0  0  0  0  0  0  0  0  0
   -4.3784    1.0221   -1.6428 O   0  0  0  0  0  0  0  0  0  0  0  0
   -4.4781    1.5954    0.6569 O   0  0  0  0  0  0  0  0  0  0  0  0
   -3.6726    1.3890    1.7979 C   0  0  0  0  0  0  0  0  0  0  0  0
  1  2  1  0
  2  3  1  0
  3  4  2  0
  4  5  1  0
  4  6  1  0
  6  7  2  0
  7  8  1  0
  8  9  1  0
  8 10  2  0
 10 11  1  0
 11 12  1  0
 12 13  2  0
 13 14  1  0
 13 15  1  0
 15 16  1  0
 16 17  1  0
 17 18  2  0
 17 19  1  0
  7 20  1  0
 20 21  2  0
 20 22  1  0
 22 23  1  0
 10  3  1  0
 23  6  1  0
M  END
>  <zinc_id>  (1) 
ZINC000000001758

>  <smiles>  (1) 
COc1c(C)c2c(c(O)c1C/C=C(\C)CCC(=O)O)C(=O)OC2

$$$$
