
     RDKit          3D

  6  6  0  0  0  0  0  0  0  0999 V2000
    2.1492    0.0129   -0.0240 C   0  0  0  0  0  0  0  0  0  0  0  0
    0.6925    0.0233    0.3038 C   0  0  0  0  0  0  0  0  0  0  0  0
   -0.0247    1.0483    0.8340 C   0  0  0  0  0  0  0  0  0  0  0  0
   -1.2826    0.5962    0.9503 N   0  0  0  0  0  0  0  0  0  0  0  0
   -1.3739   -0.6472    0.5209 N   0  0  0  0  0  0  0  0  0  0  0  0
   -0.1605   -1.0336    0.1113 C   0  0  0  0  0  0  0  0  0  0  0  0
  1  2  1  0
  2  3  1  0
  3  4  2  0
  4  5  1  0
  5  6  1  0
  6  2  2  0
M  END
>  <zinc_id>  (1) 
ZINC000000897288

>  <smiles>  (1) 
Cc1cn[nH]c1

$$$$
