
     RDKit          3D

 16 16  0  0  0  0  0  0  0  0999 V2000
    1.1549    1.3493   -0.1967 C   0  0  0  0  0  0  0  0  0  0  0  0
    1.2754   -0.2342   -0.5262 C   0  0  1  0  0  0  0  0  0  0  0  0
    2.2706   -0.5968    0.6204 N   0  0  0  0  0  0  0  0  0  0  0  0
    3.5506   -0.0456    0.2923 C   0  0  0  0  0  0  0  0  0  0  0  0
    4.0313   -0.7340   -1.0080 C   0  0  0  0  0  0  0  0  0  0  0  0
    3.6613    1.4366    0.2400 C   0  0  0  0  0  0  0  0  0  0  0  0
    4.4775   -0.5477    1.4105 C   0  0  0  0  0  0  0  0  0  0  0  0
   -0.0431   -0.7011    0.2160 C   0  0  0  0  0  0  0  0  0  0  0  0
    0.0809   -1.6914    0.9937 O   0  0  0  0  0  0  0  0  0  0  0  0
   -1.2769   -0.0258   -0.0143 C   0  0  0  0  0  0  0  0  0  0  0  0
   -1.4770    1.1110   -0.7102 C   0  0  0  0  0  0  0  0  0  0  0  0
   -2.7642    1.6099   -0.8651 C   0  0  0  0  0  0  0  0  0  0  0  0
   -3.8746    0.9764   -0.3301 C   0  0  0  0  0  0  0  0  0  0  0  0
   -3.6678   -0.1901    0.3828 C   0  0  0  0  0  0  0  0  0  0  0  0
   -5.0130   -1.0648    1.0871 Cl  0  0  0  0  0  0  0  0  0  0  0  0
   -2.3858   -0.6516    0.5186 C   0  0  0  0  0  0  0  0  0  0  0  0
  2  1  1  1
  2  3  1  0
  3  4  1  0
  4  5  1  0
  4  6  1  0
  4  7  1  0
  2  8  1  0
  8  9  2  0
  8 10  1  0
 10 11  2  0
 11 12  1  0
 12 13  2  0
 13 14  1  0
 14 15  1  0
 14 16  2  0
 16 10  1  0
M  END
>  <zinc_id>  (1) 
ZINC000000057206

>  <smiles>  (1) 
C[C@@H](NC(C)(C)C)C(=O)c1cccc(Cl)c1

$$$$
