
     RDKit          3D

 11 11  0  0  0  0  0  0  0  0999 V2000
    3.6200   -0.1791   -0.1650 C   0  0  0  0  0  0  0  0  0  0  0  0
    2.1617   -0.0856   -0.1243 C   0  0  0  0  0  0  0  0  0  0  0  0
    1.4446   -1.0154   -0.8412 C   0  0  0  0  0  0  0  0  0  0  0  0
    0.0700   -0.9615   -0.8343 C   0  0  0  0  0  0  0  0  0  0  0  0
   -0.6460   -0.0259   -0.1505 C   0  0  0  0  0  0  0  0  0  0  0  0
   -2.1147   -0.0546   -0.1897 C   0  0  0  0  0  0  0  0  0  0  0  0
   -2.6807   -0.9248   -1.2863 C   0  0  0  0  0  0  0  0  0  0  0  0
   -2.7134   -0.4115    1.1583 C   0  0  0  0  0  0  0  0  0  0  0  0
    0.0744    0.9094    0.5729 C   0  0  0  0  0  0  0  0  0  0  0  0
   -0.6596    1.8606    1.2679 O   0  0  0  0  0  0  0  0  0  0  0  0
    1.4436    0.8885    0.5923 C   0  0  0  0  0  0  0  0  0  0  0  0
  1  2  1  0
  2  3  2  0
  3  4  1  0
  4  5  2  0
  5  6  1  0
  6  7  1  0
  6  8  1  0
  5  9  1  0
  9 10  1  0
  9 11  2  0
 11  2  1  0
M  END
>  <zinc_id>  (1) 
ZINC000000967597

>  <smiles>  (1) 
Cc1ccc(C(C)C)c(O)c1

$$$$
