
     RDKit          3D

 37 40  0  0  0  0  0  0  0  0999 V2000
   -6.4645    1.2240    0.1968 C   0  0  0  0  0  0  0  0  0  0  0  0
   -6.3344    0.8913    0.2354 C   0  0  0  0  0  0  0  0  0  0  0  0
   -7.0799    0.1268   -0.8567 C   0  0  0  0  0  0  0  0  0  0  0  0
   -4.9406    0.7590   -0.0219 O   0  0  0  0  0  0  0  0  0  0  0  0
   -4.2732   -0.4329    0.0780 N   0  0  0  0  0  0  0  0  0  0  0  0
   -2.9978   -0.4674   -0.0454 C   0  0  0  0  0  0  0  0  0  0  0  0
   -2.2836    0.7712   -0.2908 C   0  0  0  0  0  0  0  0  0  0  0  0
   -2.9463    1.8367   -0.3870 O   0  0  0  0  0  0  0  0  0  0  0  0
   -0.8767    0.9008   -0.4362 N   0  0  0  0  0  0  0  0  0  0  0  0
   -0.3511    2.3333   -0.7042 C   0  0  2  0  0  0  0  0  0  0  0  0
    0.6961    1.8995   -1.8130 C   0  0  0  0  0  0  0  0  0  0  0  0
    0.4809    1.6767   -3.0210 O   0  0  0  0  0  0  0  0  0  0  0  0
    1.7271    1.9195   -0.8478 N   0  0  0  0  0  0  0  0  0  0  0  0
    3.0950    1.6566   -0.6093 C   0  0  0  0  0  0  0  0  0  0  0  0
    4.0961    2.1307   -1.6021 C   0  0  0  0  0  0  0  0  0  0  0  0
    5.2977    1.9550   -1.3941 O   0  0  0  0  0  0  0  0  0  0  0  0
    3.7506    2.7750   -2.7789 O   0  0  0  0  0  0  0  0  0  0  0  0
    3.5507    1.0453    0.4498 C   0  0  0  0  0  0  0  0  0  0  0  0
    5.0579    0.8232    0.5792 C   0  0  0  0  0  0  0  0  0  0  0  0
    5.3818   -0.5407    0.7603 N   0  0  0  0  0  0  0  0  0  0  0  0
    5.4666   -1.0574    1.9979 C   0  0  0  0  0  0  0  0  0  0  0  0
    5.7781   -2.3815    2.2421 C   0  0  0  0  0  0  0  0  0  0  0  0
    6.0121   -3.2133    1.1909 C   0  0  0  0  0  0  0  0  0  0  0  0
    5.9265   -2.6883   -0.0950 C   0  0  0  0  0  0  0  0  0  0  0  0
    5.6115   -1.3597   -0.2647 C   0  0  0  0  0  0  0  0  0  0  0  0
    2.6784    0.5368    1.5147 C   0  0  0  0  0  0  0  0  0  0  0  0
    0.9531    0.9824    1.4329 S   0  0  0  0  0  0  0  0  0  0  0  0
    0.9402    2.4671    0.2931 C   0  0  2  0  0  0  0  0  0  0  0  0
   -2.3353   -1.7781    0.0587 C   0  0  0  0  0  0  0  0  0  0  0  0
   -3.0332   -2.9415    0.2854 C   0  0  0  0  0  0  0  0  0  0  0  0
   -1.7719   -4.1212    0.2990 S   0  0  0  0  0  0  0  0  0  0  0  0
   -0.4677   -3.0590    0.0186 C   0  0  0  0  0  0  0  0  0  0  0  0
    0.9415   -3.3852   -0.0931 N   0  0  0  0  0  0  0  0  0  0  0  0
   -1.0441   -1.8969   -0.0683 N   0  0  0  0  0  0  0  0  0  0  0  0
   -6.6769    0.3678    1.5800 C   0  0  0  0  0  0  0  0  0  0  0  0
   -7.8666    0.3916    1.9566 O   0  0  0  0  0  0  0  0  0  0  0  0
   -5.6978   -0.1471    2.4269 O   0  0  0  0  0  0  0  0  0  0  0  0
  1  2  1  0
  2  3  1  0
  2  4  1  0
  4  5  1  0
  5  6  2  0
  6  7  1  0
  7  8  2  0
  7  9  1  0
 10  9  1  1
 10 11  1  0
 11 12  2  0
 11 13  1  0
 13 14  1  0
 14 15  1  0
 15 16  2  0
 15 17  1  0
 14 18  2  0
 18 19  1  0
 19 20  1  0
 20 21  2  0
 21 22  1  0
 22 23  2  0
 23 24  1  0
 24 25  2  0
 18 26  1  0
 26 27  1  0
 28 27  1  1
  6 29  1  0
 29 30  2  0
 30 31  1  0
 31 32  1  0
 32 33  1  0
 32 34  2  0
  2 35  1  0
 35 36  2  0
 35 37  1  0
 28 10  1  0
 34 29  1  0
 28 13  1  0
 25 20  1  0
M  CHG  1  20   1
M  END
>  <zinc_id>  (1) 
ZINC000003871960

>  <smiles>  (1) 
CC(C)(O/N=C(\C(=O)N[C@@H]1C(=O)N2C(C(=O)O)=C(C[n+]3ccccc3)CS[C@H]12)c1csc(N)n1)C(=O)O

$$$$
