
     RDKit          3D

  8  8  0  0  0  0  0  0  0  0999 V2000
    2.7527    0.0125    0.5623 O   0  0  0  0  0  0  0  0  0  0  0  0
    1.9874   -0.0822   -0.6034 C   0  0  0  0  0  0  0  0  0  0  0  0
    0.5451   -0.0415   -0.2858 C   0  0  0  0  0  0  0  0  0  0  0  0
   -0.0988    1.1736   -0.2461 C   0  0  0  0  0  0  0  0  0  0  0  0
   -1.4330    1.2197    0.0470 C   0  0  0  0  0  0  0  0  0  0  0  0
   -2.1171    0.0680    0.2975 C   0  0  0  0  0  0  0  0  0  0  0  0
   -1.4881   -1.1418    0.2606 C   0  0  0  0  0  0  0  0  0  0  0  0
   -0.1482   -1.2084   -0.0320 C   0  0  0  0  0  0  0  0  0  0  0  0
  1  2  1  0
  2  3  1  0
  3  4  2  0
  4  5  1  0
  5  6  2  0
  6  7  1  0
  7  8  2  0
  8  3  1  0
M  END
>  <zinc_id>  (1) 
ZINC000000895302

>  <smiles>  (1) 
OCc1ccccc1

$$$$
