
     RDKit          3D

 35 36  0  0  0  0  0  0  0  0999 V2000
   -4.4827    6.3035   -0.4208 C   0  0  0  0  0  0  0  0  0  0  0  0
   -4.6011    5.6783   -0.4063 C   0  0  0  0  0  0  0  0  0  0  0  0
   -5.8426    5.0105   -1.0237 C   0  0  0  0  0  0  0  0  0  0  0  0
   -3.5500    4.6985   -0.3363 O   0  0  0  0  0  0  0  0  0  0  0  0
   -3.9564    3.3710   -0.3082 C   0  0  0  0  0  0  0  0  0  0  0  0
   -5.1931    3.0735   -0.3436 O   0  0  0  0  0  0  0  0  0  0  0  0
   -3.0598    2.3157   -0.2414 O   0  0  0  0  0  0  0  0  0  0  0  0
   -3.5274    1.0148   -0.2164 C   0  0  0  0  0  0  0  0  0  0  0  0
   -2.6015    0.0298   -0.1508 O   0  0  0  0  0  0  0  0  0  0  0  0
   -1.5987    0.0385    1.1725 P   0  0  0  0  0  0  0  0  0  0  0  0
   -1.5351    1.4245    1.8357 O   0  0  0  0  0  0  0  0  0  0  0  0
    0.0514   -0.4515    0.9216 C   0  0  0  0  0  0  0  0  0  0  0  0
    0.6296   -0.3993   -0.3062 O   0  0  0  0  0  0  0  0  0  0  0  0
    1.9941   -0.9336    0.1436 C   0  0  2  0  0  0  0  0  0  0  0  0
    2.2125    0.3294    1.1612 C   0  0  0  0  0  0  0  0  0  0  0  0
    2.8107   -0.2444   -1.0888 C   0  0  0  0  0  0  0  0  0  0  0  0
    4.1930   -0.6460   -0.8678 N   0  0  0  0  0  0  0  0  0  0  0  0
    4.7929   -1.7836   -1.3064 C   0  0  0  0  0  0  0  0  0  0  0  0
    6.0762   -1.8412   -0.9150 N   0  0  0  0  0  0  0  0  0  0  0  0
    6.3388   -0.7212   -0.2019 C   0  0  0  0  0  0  0  0  0  0  0  0
    5.1682   -0.0054   -0.1878 C   0  0  0  0  0  0  0  0  0  0  0  0
    5.1840    1.1682    0.4681 N   0  0  0  0  0  0  0  0  0  0  0  0
    6.2293    1.6713    1.0894 C   0  0  0  0  0  0  0  0  0  0  0  0
    7.3801    0.9739    1.0795 N   0  0  0  0  0  0  0  0  0  0  0  0
    7.4289   -0.2070    0.4405 C   0  0  0  0  0  0  0  0  0  0  0  0
    8.6379   -0.9816    0.4069 N   0  0  0  0  0  0  0  0  0  0  0  0
   -2.2995   -0.9276    2.3788 O   0  0  0  0  0  0  0  0  0  0  0  0
   -1.6289   -2.1238    2.3923 C   0  0  0  0  0  0  0  0  0  0  0  0
   -1.7759   -2.7126    1.1117 O   0  0  0  0  0  0  0  0  0  0  0  0
   -2.9755   -3.0461    0.5414 C   0  0  0  0  0  0  0  0  0  0  0  0
   -4.0318   -2.8207    1.1864 O   0  0  0  0  0  0  0  0  0  0  0  0
   -3.1070   -3.6228   -0.7148 O   0  0  0  0  0  0  0  0  0  0  0  0
   -4.3600   -3.9596   -1.2848 C   0  0  0  0  0  0  0  0  0  0  0  0
   -4.0410   -4.5619   -2.6602 C   0  0  0  0  0  0  0  0  0  0  0  0
   -4.9596   -5.1114   -0.4755 C   0  0  0  0  0  0  0  0  0  0  0  0
  1  2  1  0
  2  3  1  0
  2  4  1  0
  4  5  1  0
  5  6  2  0
  5  7  1  0
  7  8  1  0
  8  9  1  0
  9 10  1  0
 10 11  2  0
 10 12  1  0
 12 13  1  0
 13 14  1  0
 14 15  1  1
 14 16  1  0
 16 17  1  0
 17 18  1  0
 18 19  2  0
 19 20  1  0
 20 21  2  0
 21 22  1  0
 22 23  2  0
 23 24  1  0
 24 25  2  0
 25 26  1  0
 10 27  1  0
 27 28  1  0
 28 29  1  0
 29 30  1  0
 30 31  2  0
 30 32  1  0
 32 33  1  0
 33 34  1  0
 33 35  1  0
 21 17  1  0
 25 20  1  0
M  END
>  <zinc_id>  (1) 
ZINC000003929022

>  <smiles>  (1) 
CC(C)OC(=O)OCOP(=O)(CO[C@H](C)Cn1cnc2c(N)ncnc21)OCOC(=O)OC(C)C

$$$$
