
     RDKit          3D

 15 15  0  0  0  0  0  0  0  0999 V2000
    4.2133   -0.4178   -0.2430 C   0  0  0  0  0  0  0  0  0  0  0  0
    3.5750   -0.0327    0.2022 C   0  0  0  0  0  0  0  0  0  0  0  0
    3.5915    1.5273    0.1860 C   0  0  0  0  0  0  0  0  0  0  0  0
    2.9421   -0.3681    1.4731 N   0  0  0  0  0  0  0  0  0  0  0  0
    1.5244   -0.1420    1.4937 C   0  0  0  0  0  0  0  0  0  0  0  0
    0.7787   -1.3594    0.7348 C   0  0  2  0  0  0  0  0  0  0  0  0
    1.4423   -1.1842   -0.6010 O   0  0  0  0  0  0  0  0  0  0  0  0
   -0.5754   -0.5755    0.3512 C   0  0  0  0  0  0  0  0  0  0  0  0
   -1.0450   -0.6856   -0.8637 C   0  0  0  0  0  0  0  0  0  0  0  0
   -2.2812   -0.1539   -1.1949 C   0  0  0  0  0  0  0  0  0  0  0  0
   -3.0094    0.4988   -0.1858 C   0  0  0  0  0  0  0  0  0  0  0  0
   -4.2169    1.0942   -0.4690 O   0  0  0  0  0  0  0  0  0  0  0  0
   -2.4903    0.5746    1.0588 C   0  0  0  0  0  0  0  0  0  0  0  0
   -3.2254    1.1919    2.0514 O   0  0  0  0  0  0  0  0  0  0  0  0
   -1.2238    0.0324    1.3628 C   0  0  0  0  0  0  0  0  0  0  0  0
  1  2  1  0
  2  3  1  0
  2  4  1  0
  4  5  1  0
  5  6  1  0
  6  7  1  6
  6  8  1  0
  8  9  2  0
  9 10  1  0
 10 11  2  0
 11 12  1  0
 11 13  1  0
 13 14  1  0
 13 15  2  0
 15  8  1  0
M  END
>  <zinc_id>  (1) 
ZINC000000056652

>  <smiles>  (1) 
CC(C)NC[C@H](O)c1ccc(O)c(O)c1

$$$$
