
     RDKit          3D

 26 27  0  0  0  0  0  0  0  0999 V2000
    6.0434   -1.2763    0.5936 C   0  0  0  0  0  0  0  0  0  0  0  0
    5.9196   -0.8386    0.4778 C   0  0  0  0  0  0  0  0  0  0  0  0
    5.5517    0.4965    0.0814 N   0  0  0  0  0  0  0  0  0  0  0  0
    6.6790    1.2885   -0.2264 C   0  0  0  0  0  0  0  0  0  0  0  0
    7.3714    0.8081   -1.4846 C   0  0  0  0  0  0  0  0  0  0  0  0
    4.5032    0.4905   -0.8913 C   0  0  0  0  0  0  0  0  0  0  0  0
    3.2936    0.0016   -0.1539 C   0  0  0  0  0  0  0  0  0  0  0  0
    2.3331   -0.4087    0.4624 C   0  0  0  0  0  0  0  0  0  0  0  0
    1.2229   -0.9326    1.2069 C   0  0  0  0  0  0  0  0  0  0  0  0
   -0.0350   -0.5052    0.8166 O   0  0  0  0  0  0  0  0  0  0  0  0
   -0.6186   -0.5958   -0.4226 C   0  0  0  0  0  0  0  0  0  0  0  0
    0.0761   -1.1068   -1.3386 O   0  0  0  0  0  0  0  0  0  0  0  0
   -1.9888   -0.1376   -0.7398 C   0  0  1  0  0  0  0  0  0  0  0  0
   -2.2405   -0.1658   -2.1233 O   0  0  0  0  0  0  0  0  0  0  0  0
   -2.8977   -1.1615   -0.0943 C   0  0  0  0  0  0  0  0  0  0  0  0
   -3.9663   -1.7257   -0.6915 C   0  0  0  0  0  0  0  0  0  0  0  0
   -4.7799   -2.6546   -0.0611 C   0  0  0  0  0  0  0  0  0  0  0  0
   -4.4488   -2.9839    1.2172 C   0  0  0  0  0  0  0  0  0  0  0  0
   -3.3826   -2.4529    1.8844 C   0  0  0  0  0  0  0  0  0  0  0  0
   -2.6116   -1.5303    1.1997 C   0  0  0  0  0  0  0  0  0  0  0  0
   -2.2888    1.1857   -0.1187 C   0  0  0  0  0  0  0  0  0  0  0  0
   -3.7185    1.6252   -0.4597 C   0  0  0  0  0  0  0  0  0  0  0  0
   -4.0280    2.8575    0.3360 C   0  0  0  0  0  0  0  0  0  0  0  0
   -3.0451    3.9460    0.0073 C   0  0  0  0  0  0  0  0  0  0  0  0
   -1.6193    3.5003    0.3533 C   0  0  0  0  0  0  0  0  0  0  0  0
   -1.3245    2.2762   -0.4841 C   0  0  0  0  0  0  0  0  0  0  0  0
  1  2  1  0
  2  3  1  0
  3  4  1  0
  4  5  1  0
  3  6  1  0
  6  7  1  0
  7  8  3  0
  8  9  1  0
  9 10  1  0
 10 11  1  0
 11 12  2  0
 11 13  1  0
 13 14  1  6
 13 15  1  0
 15 16  2  0
 16 17  1  0
 17 18  2  0
 18 19  1  0
 19 20  2  0
 13 21  1  0
 21 22  1  0
 22 23  1  0
 23 24  1  0
 24 25  1  0
 25 26  1  0
 20 15  1  0
 26 21  1  0
M  END
>  <zinc_id>  (1) 
ZINC000001530751

>  <smiles>  (1) 
CCN(CC)CC#CCOC(=O)[C@@](O)(c1ccccc1)C1CCCCC1

$$$$
