
     RDKit          3D

 45 50  0  0  0  0  0  0  0  0999 V2000
    2.5713   -6.2590   -0.6964 C   0  0  0  0  0  0  0  0  0  0  0  0
    2.0783   -5.7723    0.1362 C   0  0  0  0  0  0  0  0  0  0  0  0
    1.4790   -4.5287    0.1321 O   0  0  0  0  0  0  0  0  0  0  0  0
    0.4227   -4.1474   -0.6727 C   0  0  0  0  0  0  0  0  0  0  0  0
   -0.2303   -4.8469   -1.5824 N   0  0  0  0  0  0  0  0  0  0  0  0
   -1.1992   -4.0800   -2.1334 C   0  0  0  0  0  0  0  0  0  0  0  0
   -2.1280   -4.3447   -3.1128 C   0  0  0  0  0  0  0  0  0  0  0  0
   -3.0175   -3.3747   -3.5013 C   0  0  0  0  0  0  0  0  0  0  0  0
   -2.9609   -2.1625   -2.9004 C   0  0  0  0  0  0  0  0  0  0  0  0
   -2.0359   -1.8295   -1.8921 C   0  0  0  0  0  0  0  0  0  0  0  0
   -2.1855   -0.5442   -1.2346 C   0  0  0  0  0  0  0  0  0  0  0  0
   -2.6041    0.4209   -2.0064 O   0  0  0  0  0  0  0  0  0  0  0  0
   -1.9565   -0.2176    0.0774 O   0  0  0  0  0  0  0  0  0  0  0  0
   -2.2326    1.2647    0.4503 C   0  0  2  0  0  0  0  0  0  0  0  0
   -1.7929    1.0174    2.0590 C   0  0  0  0  0  0  0  0  0  0  0  0
   -3.7376    1.0076    0.7582 O   0  0  0  0  0  0  0  0  0  0  0  0
   -4.4253    2.1487    1.1593 C   0  0  0  0  0  0  0  0  0  0  0  0
   -3.8243    3.2512    1.2432 O   0  0  0  0  0  0  0  0  0  0  0  0
   -5.7768    2.0173    1.4564 O   0  0  0  0  0  0  0  0  0  0  0  0
   -6.5052    3.1681    1.8693 C   0  0  0  0  0  0  0  0  0  0  0  0
   -7.9458    2.7640    2.1312 C   0  0  0  0  0  0  0  0  0  0  0  0
   -7.9403    1.5261    3.0190 C   0  0  0  0  0  0  0  0  0  0  0  0
   -7.2000    1.7797    4.2991 C   0  0  0  0  0  0  0  0  0  0  0  0
   -5.8459    2.3925    4.0840 C   0  0  0  0  0  0  0  0  0  0  0  0
   -5.9068    3.6171    3.1848 C   0  0  0  0  0  0  0  0  0  0  0  0
   -1.1403   -2.8119   -1.5140 C   0  0  0  0  0  0  0  0  0  0  0  0
   -0.1384   -2.8934   -0.6362 N   0  0  0  0  0  0  0  0  0  0  0  0
    0.3173   -1.8591    0.2141 C   0  0  0  0  0  0  0  0  0  0  0  0
    1.5114   -1.1222   -0.1636 C   0  0  0  0  0  0  0  0  0  0  0  0
    1.4863   -0.0032   -0.9347 C   0  0  0  0  0  0  0  0  0  0  0  0
    2.5972    0.7210   -1.3127 C   0  0  0  0  0  0  0  0  0  0  0  0
    3.8740    0.3614   -0.9286 C   0  0  0  0  0  0  0  0  0  0  0  0
    5.0622    1.1078   -1.3360 C   0  0  0  0  0  0  0  0  0  0  0  0
    5.7544    0.7836   -2.5013 C   0  0  0  0  0  0  0  0  0  0  0  0
    6.8718    1.4338   -2.9591 C   0  0  0  0  0  0  0  0  0  0  0  0
    7.3318    2.4832   -2.1996 C   0  0  0  0  0  0  0  0  0  0  0  0
    6.7074    2.8610   -1.0445 C   0  0  0  0  0  0  0  0  0  0  0  0
    5.5615    2.1552   -0.6221 C   0  0  0  0  0  0  0  0  0  0  0  0
    4.9436    2.5933    0.6065 C   0  0  0  0  0  0  0  0  0  0  0  0
    5.3647    3.6227    1.3715 N   0  0  0  0  0  0  0  0  0  0  0  0
    4.5580    3.7008    2.3858 N   0  0  0  0  0  0  0  0  0  0  0  0
    3.6436    2.7752    2.3089 N   0  0  0  0  0  0  0  0  0  0  0  0
    3.8759    2.0873    1.2119 N   0  0  0  0  0  0  0  0  0  0  0  0
    3.9105   -0.7706   -0.1473 C   0  0  0  0  0  0  0  0  0  0  0  0
    2.8070   -1.4939    0.2309 C   0  0  0  0  0  0  0  0  0  0  0  0
  1  2  1  0
  2  3  1  0
  3  4  1  0
  4  5  2  0
  5  6  1  0
  6  7  2  0
  7  8  1  0
  8  9  2  0
  9 10  1  0
 10 11  1  0
 11 12  2  0
 11 13  1  0
 13 14  1  0
 14 15  1  1
 14 16  1  0
 16 17  1  0
 17 18  2  0
 17 19  1  0
 19 20  1  0
 20 21  1  0
 21 22  1  0
 22 23  1  0
 23 24  1  0
 24 25  1  0
 10 26  2  0
 26 27  1  0
 27 28  1  0
 28 29  1  0
 29 30  2  0
 30 31  1  0
 31 32  2  0
 32 33  1  0
 33 34  2  0
 34 35  1  0
 35 36  2  0
 36 37  1  0
 37 38  2  0
 38 39  1  0
 39 40  1  0
 40 41  2  0
 41 42  1  0
 42 43  1  0
 32 44  1  0
 44 45  2  0
 27  4  1  0
 45 29  1  0
 26  6  1  0
 38 33  1  0
 43 39  2  0
 25 20  1  0
M  END
>  <zinc_id>  (1) 
ZINC000004074875

>  <smiles>  (1) 
CCOc1nc2cccc(C(=O)O[C@H](C)OC(=O)OC3CCCCC3)c2n1Cc1ccc(-c2ccccc2-c2nn[nH]n2)cc1

$$$$
