
     RDKit          3D

 11 11  0  0  0  0  0  0  0  0999 V2000
    3.0698    0.9903   -0.5205 N   0  0  0  0  0  0  0  0  0  0  0  0
    3.0021   -0.3806   -0.9894 C   0  0  0  0  0  0  0  0  0  0  0  0
    2.1339   -1.2415   -0.1076 C   0  0  0  0  0  0  0  0  0  0  0  0
    0.7312   -0.7445   -0.0405 C   0  0  0  0  0  0  0  0  0  0  0  0
   -0.2458   -1.1551   -0.9228 C   0  0  0  0  0  0  0  0  0  0  0  0
   -1.5489   -0.7051   -0.8748 C   0  0  0  0  0  0  0  0  0  0  0  0
   -1.9262    0.2052    0.0967 C   0  0  0  0  0  0  0  0  0  0  0  0
   -3.2257    0.6909    0.1899 O   0  0  0  0  0  0  0  0  0  0  0  0
   -0.9632    0.6289    0.9897 C   0  0  0  0  0  0  0  0  0  0  0  0
   -1.3629    1.5480    1.9633 O   0  0  0  0  0  0  0  0  0  0  0  0
    0.3357    0.1636    0.9213 C   0  0  0  0  0  0  0  0  0  0  0  0
  1  2  1  0
  2  3  1  0
  3  4  1  0
  4  5  2  0
  5  6  1  0
  6  7  2  0
  7  8  1  0
  7  9  1  0
  9 10  1  0
  9 11  2  0
 11  4  1  0
M  END
>  <zinc_id>  (1) 
ZINC000000033882

>  <smiles>  (1) 
NCCc1ccc(O)c(O)c1

$$$$
