
     RDKit          3D

 11 11  0  0  0  0  0  0  0  0999 V2000
    3.6782   -0.6829   -0.3109 C   0  0  0  0  0  0  0  0  0  0  0  0
    2.2739   -0.9032   -0.2613 O   0  0  0  0  0  0  0  0  0  0  0  0
    1.3764    0.1284   -0.0613 C   0  0  0  0  0  0  0  0  0  0  0  0
    1.8262    1.2917    0.0797 O   0  0  0  0  0  0  0  0  0  0  0  0
   -0.0737   -0.1176   -0.0126 C   0  0  0  0  0  0  0  0  0  0  0  0
   -0.5812   -1.3728   -0.1633 C   0  0  0  0  0  0  0  0  0  0  0  0
   -1.9381   -1.5883   -0.1157 C   0  0  0  0  0  0  0  0  0  0  0  0
   -2.8461   -0.5680    0.0833 C   0  0  0  0  0  0  0  0  0  0  0  0
   -2.3212    0.7024    0.2352 C   0  0  0  0  0  0  0  0  0  0  0  0
   -0.9585    0.9181    0.1872 C   0  0  0  0  0  0  0  0  0  0  0  0
   -0.4360    2.1921    0.3398 O   0  0  0  0  0  0  0  0  0  0  0  0
  1  2  1  0
  2  3  1  0
  3  4  2  0
  3  5  1  0
  5  6  2  0
  6  7  1  0
  7  8  2  0
  8  9  1  0
  9 10  2  0
 10 11  1  0
 10  5  1  0
M  END
>  <zinc_id>  (1) 
ZINC000000000490

>  <smiles>  (1) 
COC(=O)c1ccccc1O

$$$$
