
     RDKit          3D

 14 15  0  0  0  0  0  0  0  0999 V2000
   -0.3059   -1.5830    1.9754 O   0  0  0  0  0  0  0  0  0  0  0  0
   -0.0956   -0.7595    1.0335 C   0  0  0  0  0  0  0  0  0  0  0  0
   -1.2850   -0.3275    0.2890 C   0  0  0  0  0  0  0  0  0  0  0  0
   -2.5483   -0.4132    0.8928 C   0  0  0  0  0  0  0  0  0  0  0  0
   -3.6195    0.0273    0.1701 C   0  0  0  0  0  0  0  0  0  0  0  0
   -3.5624    0.5485   -1.1027 C   0  0  0  0  0  0  0  0  0  0  0  0
   -2.2918    0.6300   -1.6957 C   0  0  0  0  0  0  0  0  0  0  0  0
   -1.2080    0.1915   -0.9809 C   0  0  0  0  0  0  0  0  0  0  0  0
    1.2104   -0.2572    0.6954 C   0  0  0  0  0  0  0  0  0  0  0  0
    1.5200    0.1585   -0.5717 C   0  0  0  0  0  0  0  0  0  0  0  0
    2.7522    0.6814   -0.8792 C   0  0  0  0  0  0  0  0  0  0  0  0
    3.7409    0.8158    0.0643 C   0  0  0  0  0  0  0  0  0  0  0  0
    3.4656    0.4064    1.3514 C   0  0  0  0  0  0  0  0  0  0  0  0
    2.2274   -0.1190    1.6560 C   0  0  0  0  0  0  0  0  0  0  0  0
  1  2  2  0
  2  3  1  0
  3  4  2  0
  4  5  1  0
  5  6  2  0
  6  7  1  0
  7  8  2  0
  2  9  1  0
  9 10  2  0
 10 11  1  0
 11 12  2  0
 12 13  1  0
 13 14  2  0
  8  3  1  0
 14  9  1  0
M  END
>  <zinc_id>  (1) 
ZINC000000968233

>  <smiles>  (1) 
O=C(c1ccccc1)c1ccccc1

$$$$
