
     RDKit          3D

 29 30  0  0  0  0  0  0  0  0999 V2000
   -0.5260   -1.1141    3.2457 C   0  0  0  0  0  0  0  0  0  0  0  0
   -0.7445   -1.4031    1.8642 N   0  0  0  0  0  0  0  0  0  0  0  0
    0.0290   -2.5368    1.4504 C   0  0  0  0  0  0  0  0  0  0  0  0
    1.4947   -2.2250    1.4594 C   0  0  0  0  0  0  0  0  0  0  0  0
    1.8551   -1.1790    0.6134 O   0  0  0  0  0  0  0  0  0  0  0  0
    3.1289   -0.7163    0.4527 C   0  0  0  0  0  0  0  0  0  0  0  0
    3.3215    0.3360   -0.4307 C   0  0  0  0  0  0  0  0  0  0  0  0
    4.6257    0.8074   -0.5925 C   0  0  0  0  0  0  0  0  0  0  0  0
    5.6762    0.2402    0.1049 C   0  0  0  0  0  0  0  0  0  0  0  0
    7.0146    0.6991   -0.0405 N   0  0  0  0  0  0  0  0  0  0  0  0
    7.6030    1.0019   -1.6430 S   0  0  0  0  0  0  0  0  0  0  0  0
    6.5904    2.2856   -2.3361 C   0  0  0  0  0  0  0  0  0  0  0  0
    9.0424    1.4114   -1.5847 O   0  0  0  0  0  0  0  0  0  0  0  0
    7.3919   -0.2486   -2.4524 O   0  0  0  0  0  0  0  0  0  0  0  0
    5.4446   -0.8013    0.9710 C   0  0  0  0  0  0  0  0  0  0  0  0
    4.1641   -1.2945    1.1567 C   0  0  0  0  0  0  0  0  0  0  0  0
   -0.5036   -0.3103    0.9739 C   0  0  0  0  0  0  0  0  0  0  0  0
   -1.4595    0.8282    1.0722 C   0  0  0  0  0  0  0  0  0  0  0  0
   -2.8609    0.4955    0.8043 C   0  0  0  0  0  0  0  0  0  0  0  0
   -3.3555    0.5742   -0.4967 C   0  0  0  0  0  0  0  0  0  0  0  0
   -4.6847    0.2658   -0.7747 C   0  0  0  0  0  0  0  0  0  0  0  0
   -5.5477   -0.1240    0.2166 C   0  0  0  0  0  0  0  0  0  0  0  0
   -6.8874   -0.4241   -0.1179 N   0  0  0  0  0  0  0  0  0  0  0  0
   -7.7876    0.5922   -1.1712 S   0  0  0  0  0  0  0  0  0  0  0  0
   -7.9383    2.2254   -0.4603 C   0  0  0  0  0  0  0  0  0  0  0  0
   -7.0899    0.7092   -2.4930 O   0  0  0  0  0  0  0  0  0  0  0  0
   -9.1657    0.0111   -1.3097 O   0  0  0  0  0  0  0  0  0  0  0  0
   -5.0825   -0.2082    1.5029 C   0  0  0  0  0  0  0  0  0  0  0  0
   -3.7481    0.1021    1.7783 C   0  0  0  0  0  0  0  0  0  0  0  0
  1  2  1  0
  2  3  1  0
  3  4  1  0
  4  5  1  0
  5  6  1  0
  6  7  2  0
  7  8  1  0
  8  9  2  0
  9 10  1  0
 10 11  1  0
 11 12  1  0
 11 13  2  0
 11 14  2  0
  9 15  1  0
 15 16  2  0
  2 17  1  0
 17 18  1  0
 18 19  1  0
 19 20  2  0
 20 21  1  0
 21 22  2  0
 22 23  1  0
 23 24  1  0
 24 25  1  0
 24 26  2  0
 24 27  2  0
 22 28  1  0
 28 29  2  0
 16  6  1  0
 29 19  1  0
M  END
>  <zinc_id>  (1) 
ZINC000000596731

>  <smiles>  (1) 
CN(CCOc1ccc(NS(C)(=O)=O)cc1)CCc1ccc(NS(C)(=O)=O)cc1

$$$$
