
     RDKit          3D

  9  9  0  0  0  0  0  0  0  0999 V2000
    2.3577   -1.2080    0.2035 O   0  0  0  0  0  0  0  0  0  0  0  0
    1.7431   -0.1415   -0.0152 C   0  0  0  0  0  0  0  0  0  0  0  0
    2.4903    0.9915   -0.2846 O   0  0  0  0  0  0  0  0  0  0  0  0
    0.2927   -0.0394    0.0009 C   0  0  0  0  0  0  0  0  0  0  0  0
   -0.3229    1.1680   -0.2488 C   0  0  0  0  0  0  0  0  0  0  0  0
   -1.7198    1.2585   -0.2316 C   0  0  0  0  0  0  0  0  0  0  0  0
   -2.4996    0.1658    0.0299 C   0  0  0  0  0  0  0  0  0  0  0  0
   -1.8651   -1.0439    0.2796 C   0  0  0  0  0  0  0  0  0  0  0  0
   -0.4764   -1.1511    0.2663 C   0  0  0  0  0  0  0  0  0  0  0  0
  1  2  2  0
  2  3  1  0
  2  4  1  0
  4  5  2  0
  5  6  1  0
  6  7  2  0
  7  8  1  0
  8  9  2  0
  9  4  1  0
M  END
>  <zinc_id>  (1) 
ZINC000000001011

>  <smiles>  (1) 
O=C(O)c1ccccc1

$$$$
