
     RDKit          3D

 20 22  0  0  0  0  0  0  0  0999 V2000
   -3.1502   -1.8495   -1.7425 N   0  0  0  0  0  0  0  0  0  0  0  0
   -3.1964   -0.8570   -1.0232 C   0  0  0  0  0  0  0  0  0  0  0  0
   -4.3883   -0.2640   -0.5925 C   0  0  0  0  0  0  0  0  0  0  0  0
   -4.4098    0.8585    0.2214 C   0  0  0  0  0  0  0  0  0  0  0  0
   -3.2319    1.4362    0.6393 C   0  0  0  0  0  0  0  0  0  0  0  0
   -2.0291    0.8701    0.2273 C   0  0  0  0  0  0  0  0  0  0  0  0
   -2.0339   -0.2428   -0.5793 C   0  0  0  0  0  0  0  0  0  0  0  0
   -0.6189   -0.5883   -0.8257 C   0  0  0  0  0  0  0  0  0  0  0  0
   -0.2049   -1.5599   -1.5288 O   0  0  0  0  0  0  0  0  0  0  0  0
    0.2070    0.2827   -0.1920 N   0  0  0  0  0  0  0  0  0  0  0  0
    1.7078    0.4594   -0.0575 C   0  0  2  0  0  0  0  0  0  0  0  0
    2.2257    0.0745   -1.5576 C   0  0  0  0  0  0  0  0  0  0  0  0
    3.7094    0.4633   -1.4284 C   0  0  0  0  0  0  0  0  0  0  0  0
    4.2084    0.2060   -0.0589 C   0  0  0  0  0  0  0  0  0  0  0  0
    5.1446    0.8935    0.3791 O   0  0  0  0  0  0  0  0  0  0  0  0
    3.5258   -0.8567    0.6508 N   0  0  0  0  0  0  0  0  0  0  0  0
    2.1016   -0.9406    0.5664 C   0  0  0  0  0  0  0  0  0  0  0  0
    1.3396   -1.8079    0.8680 O   0  0  0  0  0  0  0  0  0  0  0  0
   -0.6208    1.2141    0.4796 C   0  0  0  0  0  0  0  0  0  0  0  0
   -0.2857    2.2083    1.1999 O   0  0  0  0  0  0  0  0  0  0  0  0
  1  2  1  0
  2  3  2  0
  3  4  1  0
  4  5  2  0
  5  6  1  0
  6  7  2  0
  7  8  1  0
  8  9  2  0
  8 10  1  0
 11 10  1  6
 11 12  1  0
 12 13  1  0
 13 14  1  0
 14 15  2  0
 14 16  1  0
 16 17  1  0
 17 18  2  0
 10 19  1  0
 19 20  2  0
  7  2  1  0
 17 11  1  0
 19  6  1  0
M  END
>  <zinc_id>  (1) 
ZINC000001997125

>  <smiles>  (1) 
Nc1cccc2c1C(=O)N([C@@H]1CCC(=O)NC1=O)C2=O

$$$$
