
     RDKit          3D

 35 36  0  0  0  0  0  0  0  0999 V2000
   10.7541    3.0954    0.5212 C   0  0  0  0  0  0  0  0  0  0  0  0
    9.4072    2.6608    0.9962 C   0  0  0  0  0  0  0  0  0  0  0  0
    8.5863    3.9278    1.2540 C   0  0  0  0  0  0  0  0  0  0  0  0
    8.7490    1.8465    0.0484 O   0  0  0  0  0  0  0  0  0  0  0  0
    7.5157    1.2771    0.2798 C   0  0  0  0  0  0  0  0  0  0  0  0
    6.9750    1.5332    1.4151 O   0  0  0  0  0  0  0  0  0  0  0  0
    6.7997    0.4283   -0.6861 C   0  0  0  0  0  0  0  0  0  0  0  0
    6.4387   -0.8845    0.0302 C   0  0  0  0  0  0  0  0  0  0  0  0
    5.5660   -1.7271   -0.9766 C   0  0  0  0  0  0  0  0  0  0  0  0
    4.4736   -0.7326   -1.1680 C   0  0  0  0  0  0  0  0  0  0  0  0
    3.4273   -1.1335   -0.7012 C   0  0  0  0  0  0  0  0  0  0  0  0
    3.0663   -2.3568   -0.0350 C   0  0  0  0  0  0  0  0  0  0  0  0
    1.5562   -2.6211   -0.6812 C   0  0  2  0  0  0  0  0  0  0  0  0
    0.9874   -1.1290   -0.0625 C   0  0  1  0  0  0  0  0  0  0  0  0
   -0.3977   -1.3325   -0.7827 C   0  0  0  0  0  0  0  0  0  0  0  0
   -1.4331   -1.7520   -0.1933 C   0  0  0  0  0  0  0  0  0  0  0  0
   -2.8322   -1.9480   -0.8842 C   0  0  1  0  0  0  0  0  0  0  0  0
   -3.5404   -2.4574    0.3523 O   0  0  0  0  0  0  0  0  0  0  0  0
   -3.3962   -0.3782   -0.6001 C   0  0  0  0  0  0  0  0  0  0  0  0
   -4.7273   -0.6308   -0.7172 O   0  0  0  0  0  0  0  0  0  0  0  0
   -5.8951   -0.0069   -0.6286 C   0  0  0  0  0  0  0  0  0  0  0  0
   -7.0596   -0.7660   -0.9133 C   0  0  0  0  0  0  0  0  0  0  0  0
   -8.3106   -0.2285   -0.8491 C   0  0  0  0  0  0  0  0  0  0  0  0
   -8.4924    1.0632   -0.5041 C   0  0  0  0  0  0  0  0  0  0  0  0
   -7.3725    1.8432   -0.2168 C   0  0  0  0  0  0  0  0  0  0  0  0
   -7.6834    3.2504    0.1439 C   0  0  0  0  0  0  0  0  0  0  0  0
   -7.6404    3.3275    1.5286 F   0  0  0  0  0  0  0  0  0  0  0  0
   -8.9357    3.6234   -0.2356 F   0  0  0  0  0  0  0  0  0  0  0  0
   -6.7238    4.1010   -0.3678 F   0  0  0  0  0  0  0  0  0  0  0  0
   -6.1237    1.3036   -0.2855 C   0  0  0  0  0  0  0  0  0  0  0  0
    0.5440   -1.6415    1.4703 C   0  0  2  0  0  0  0  0  0  0  0  0
    1.3830   -0.5696    2.1392 O   0  0  0  0  0  0  0  0  0  0  0  0
    1.7084   -2.7714    1.6730 C   0  0  0  0  0  0  0  0  0  0  0  0
    0.8483   -3.5187    0.5295 C   0  0  2  0  0  0  0  0  0  0  0  0
    1.7781   -4.6954    0.3650 O   0  0  0  0  0  0  0  0  0  0  0  0
  1  2  1  0
  2  3  1  0
  2  4  1  0
  4  5  1  0
  5  6  2  0
  5  7  1  0
  7  8  1  0
  8  9  1  0
  9 10  1  0
 10 11  2  0
 11 12  1  0
 13 12  1  1
 13 14  1  0
 14 15  1  6
 15 16  2  0
 16 17  1  0
 17 18  1  1
 17 19  1  0
 19 20  1  0
 20 21  1  0
 21 22  2  0
 22 23  1  0
 23 24  2  0
 24 25  1  0
 25 26  1  0
 26 27  1  0
 26 28  1  0
 26 29  1  0
 25 30  2  0
 14 31  1  0
 31 32  1  1
 31 33  1  0
 33 34  1  0
 34 35  1  6
 34 13  1  0
 30 21  1  0
M  END
>  <zinc_id>  (1) 
ZINC000004474682

>  <smiles>  (1) 
CC(C)OC(=O)CCC/C=C\C[C@H]1[C@@H](O)C[C@@H](O)[C@@H]1/C=C/[C@@H](O)COc1cccc(C(F)(F)F)c1

$$$$
