
     RDKit          3D

 22 26  0  0  0  0  0  0  0  0999 V2000
    4.9011   -0.3124   -0.2724 C   0  0  0  0  0  0  0  0  0  0  0  0
    3.8646    0.0606    0.2273 O   0  0  0  0  0  0  0  0  0  0  0  0
    2.6189   -0.3876   -0.1847 C   0  0  0  0  0  0  0  0  0  0  0  0
    2.4960   -1.3215   -1.2302 C   0  0  0  0  0  0  0  0  0  0  0  0
    1.2152   -1.7598   -1.6291 C   0  0  0  0  0  0  0  0  0  0  0  0
    0.0911   -1.2721   -0.9925 C   0  0  0  0  0  0  0  0  0  0  0  0
    0.3328   -0.3924   -0.0140 C   0  0  0  0  0  0  0  0  0  0  0  0
    1.4869    0.1071    0.4596 C   0  0  0  0  0  0  0  0  0  0  0  0
    1.2683    0.9880    1.4593 O   0  0  0  0  0  0  0  0  0  0  0  0
   -0.2038    1.2930    1.5845 C   0  0  1  0  0  0  0  0  0  0  0  0
   -0.3716    2.6189    0.5660 C   0  0  1  0  0  0  0  0  0  0  0  0
    0.9094    3.2617    0.9661 O   0  0  0  0  0  0  0  0  0  0  0  0
    0.1513    2.0459   -0.8319 C   0  0  0  0  0  0  0  0  0  0  0  0
   -0.9065    1.2178   -1.4346 C   0  0  0  0  0  0  0  0  0  0  0  0
   -1.8848    0.6797   -0.2942 C   0  0  1  0  0  0  0  0  0  0  0  0
   -2.4256   -0.7227   -0.9913 C   0  0  1  0  0  0  0  0  0  0  0  0
   -1.2096   -1.6283   -1.3582 C   0  0  0  0  0  0  0  0  0  0  0  0
   -2.9073   -1.5308    0.2434 N   0  0  0  0  0  0  0  0  0  0  0  0
   -4.3104   -1.7401   -0.0906 C   0  0  0  0  0  0  0  0  0  0  0  0
   -2.9180   -0.6281    1.3738 C   0  0  0  0  0  0  0  0  0  0  0  0
   -1.4285   -0.7050    1.7612 C   0  0  0  0  0  0  0  0  0  0  0  0
   -0.7694    0.1280    0.6824 C   0  0  1  0  0  0  0  0  0  0  0  0
  1  2  1  0
  2  3  1  0
  3  4  2  0
  4  5  1  0
  5  6  2  0
  6  7  1  0
  7  8  2  0
  8  9  1  0
 10  9  1  6
 10 11  1  0
 11 12  1  1
 11 13  1  0
 13 14  1  0
 15 14  1  6
 15 16  1  0
 16 17  1  1
 16 18  1  0
 18 19  1  0
 18 20  1  0
 20 21  1  0
 22 21  1  1
  8  3  1  0
 22 10  1  0
 17  6  1  0
 22  7  1  0
 22 15  1  0
M  END
>  <zinc_id>  (1) 
ZINC000004215736

>  <smiles>  (1) 
COc1ccc2c3c1O[C@H]1[C@@H](O)CC[C@H]4[C@@H](C2)N(C)CC[C@]314

$$$$
