
     RDKit          3D

 36 40  0  0  0  0  0  0  0  0999 V2000
    8.0318    1.3904    1.7252 C   0  0  0  0  0  0  0  0  0  0  0  0
    8.0681    0.7252    0.8710 C   0  0  0  0  0  0  0  0  0  0  0  0
    8.9283    1.0090   -0.0411 O   0  0  0  0  0  0  0  0  0  0  0  0
    7.2459   -0.4154    0.6952 N   0  0  0  0  0  0  0  0  0  0  0  0
    7.3932   -1.2388   -0.5115 C   0  0  0  0  0  0  0  0  0  0  0  0
    6.0740   -1.3738   -1.2344 C   0  0  0  0  0  0  0  0  0  0  0  0
    5.0268   -1.3138   -0.2589 N   0  0  0  0  0  0  0  0  0  0  0  0
    3.7546   -0.8312   -0.6180 C   0  0  0  0  0  0  0  0  0  0  0  0
    3.4994   -0.4102   -1.9115 C   0  0  0  0  0  0  0  0  0  0  0  0
    2.2632    0.0631   -2.2768 C   0  0  0  0  0  0  0  0  0  0  0  0
    1.2083    0.1485   -1.3881 C   0  0  0  0  0  0  0  0  0  0  0  0
   -0.0361    0.6258   -1.7589 O   0  0  0  0  0  0  0  0  0  0  0  0
   -1.0704    0.7073   -0.8792 C   0  0  0  0  0  0  0  0  0  0  0  0
   -1.4327   -0.7747   -0.2814 C   0  0  2  0  0  0  0  0  0  0  0  0
   -2.3695   -1.3237   -1.4965 C   0  0  0  0  0  0  0  0  0  0  0  0
   -3.2110   -0.2159   -1.5320 O   0  0  0  0  0  0  0  0  0  0  0  0
   -3.5522    0.0357   -0.2279 C   0  0  2  0  0  0  0  0  0  0  0  0
   -4.8427   -0.6493    0.1830 C   0  0  0  0  0  0  0  0  0  0  0  0
   -4.8229   -2.0790    0.0744 N   0  0  0  0  0  0  0  0  0  0  0  0
   -4.4216   -2.8818    1.0771 C   0  0  0  0  0  0  0  0  0  0  0  0
   -4.5159   -4.2022    0.7036 C   0  0  0  0  0  0  0  0  0  0  0  0
   -4.9844   -4.1971   -0.5523 N   0  0  0  0  0  0  0  0  0  0  0  0
   -5.1613   -2.9220   -0.9100 C   0  0  0  0  0  0  0  0  0  0  0  0
   -3.8581    1.4977   -0.0991 C   0  0  0  0  0  0  0  0  0  0  0  0
   -3.8244    2.3908   -1.1270 C   0  0  0  0  0  0  0  0  0  0  0  0
   -4.1315    3.7210   -0.9566 C   0  0  0  0  0  0  0  0  0  0  0  0
   -4.4914    4.2080    0.2847 C   0  0  0  0  0  0  0  0  0  0  0  0
   -4.8919    5.8865    0.5621 Cl  0  0  0  0  0  0  0  0  0  0  0  0
   -4.5332    3.3238    1.3426 C   0  0  0  0  0  0  0  0  0  0  0  0
   -4.2253    2.0118    1.1508 C   0  0  0  0  0  0  0  0  0  0  0  0
   -4.2971    0.9367    2.5368 Cl  0  0  0  0  0  0  0  0  0  0  0  0
   -2.5414   -0.3203    0.5912 O   0  0  0  0  0  0  0  0  0  0  0  0
    1.4789   -0.2746   -0.1039 C   0  0  0  0  0  0  0  0  0  0  0  0
    2.7037   -0.7503    0.2833 C   0  0  0  0  0  0  0  0  0  0  0  0
    5.2709   -1.7463    1.0907 C   0  0  0  0  0  0  0  0  0  0  0  0
    6.2680   -0.7611    1.7041 C   0  0  0  0  0  0  0  0  0  0  0  0
  1  2  1  0
  2  3  2  0
  2  4  1  0
  4  5  1  0
  5  6  1  0
  6  7  1  0
  7  8  1  0
  8  9  2  0
  9 10  1  0
 10 11  2  0
 11 12  1  0
 12 13  1  0
 14 13  1  6
 14 15  1  0
 15 16  1  0
 16 17  1  0
 17 18  1  1
 18 19  1  0
 19 20  1  0
 20 21  2  0
 21 22  1  0
 22 23  2  0
 17 24  1  0
 24 25  2  0
 25 26  1  0
 26 27  2  0
 27 28  1  0
 27 29  1  0
 29 30  2  0
 30 31  1  0
 17 32  1  0
 11 33  1  0
 33 34  2  0
  7 35  1  0
 35 36  1  0
 36  4  1  0
 34  8  1  0
 32 14  1  0
 23 19  1  0
 30 24  1  0
M  END
>  <zinc_id>  (1) 
ZINC000000643143

>  <smiles>  (1) 
CC(=O)N1CCN(c2ccc(OC[C@@H]3CO[C@](Cn4ccnc4)(c4ccc(Cl)cc4Cl)O3)cc2)CC1

$$$$
