
     RDKit          3D

 27 29  0  0  0  0  0  0  0  0999 V2000
   -0.3928   -2.1932   -3.7075 C   0  0  0  0  0  0  0  0  0  0  0  0
   -0.4005   -1.8477   -2.2366 C   0  0  0  0  0  0  0  0  0  0  0  0
   -0.0994   -0.3672   -2.0343 C   0  0  0  0  0  0  0  0  0  0  0  0
   -0.1111   -0.0385   -0.5686 C   0  0  0  0  0  0  0  0  0  0  0  0
   -1.3668    0.0430    0.0459 C   0  0  0  0  0  0  0  0  0  0  0  0
   -2.4396   -0.1255   -0.7168 O   0  0  0  0  0  0  0  0  0  0  0  0
   -3.6651   -0.0724   -0.2613 C   0  0  0  0  0  0  0  0  0  0  0  0
   -4.7976   -0.2651   -1.1470 C   0  0  0  0  0  0  0  0  0  0  0  0
   -4.5800   -0.4833   -2.3576 O   0  0  0  0  0  0  0  0  0  0  0  0
   -6.1077   -0.2195   -0.7218 O   0  0  0  0  0  0  0  0  0  0  0  0
   -3.8165    0.1753    1.0981 C   0  0  0  0  0  0  0  0  0  0  0  0
   -2.7385    0.3577    1.9354 C   0  0  0  0  0  0  0  0  0  0  0  0
   -2.8284    0.5823    3.1624 O   0  0  0  0  0  0  0  0  0  0  0  0
   -1.4699    0.2891    1.3899 C   0  0  0  0  0  0  0  0  0  0  0  0
   -0.3303    0.4573    2.1419 C   0  0  0  0  0  0  0  0  0  0  0  0
    0.9158    0.3826    1.5609 C   0  0  0  0  0  0  0  0  0  0  0  0
    2.0702    0.5264    2.2970 C   0  0  0  0  0  0  0  0  0  0  0  0
    1.9758    0.7501    3.5292 O   0  0  0  0  0  0  0  0  0  0  0  0
    3.3228    0.4366    1.7469 C   0  0  0  0  0  0  0  0  0  0  0  0
    3.3895    0.1885    0.3717 C   0  0  0  0  0  0  0  0  0  0  0  0
    4.7000    0.0655   -0.2208 C   0  0  0  0  0  0  0  0  0  0  0  0
    4.8382   -0.1786   -1.4312 O   0  0  0  0  0  0  0  0  0  0  0  0
    5.8446    0.2176    0.5492 O   0  0  0  0  0  0  0  0  0  0  0  0
    2.2491    0.0488   -0.3579 N   0  0  0  0  0  0  0  0  0  0  0  0
    2.3698   -0.1393   -1.8067 C   0  0  0  0  0  0  0  0  0  0  0  0
    2.4455    1.2772   -2.4445 C   0  0  0  0  0  0  0  0  0  0  0  0
    1.0229    0.1325    0.1841 C   0  0  0  0  0  0  0  0  0  0  0  0
  1  2  1  0
  2  3  1  0
  3  4  1  0
  4  5  2  0
  5  6  1  0
  6  7  1  0
  7  8  1  0
  8  9  2  0
  8 10  1  0
  7 11  2  0
 11 12  1  0
 12 13  2  0
 12 14  1  0
 14 15  2  0
 15 16  1  0
 16 17  1  0
 17 18  2  0
 17 19  1  0
 19 20  2  0
 20 21  1  0
 21 22  2  0
 21 23  1  0
 20 24  1  0
 24 25  1  0
 25 26  1  0
 24 27  1  0
 27  4  1  0
 14  5  1  0
 27 16  2  0
M  END
>  <zinc_id>  (1) 
ZINC000003782807

>  <smiles>  (1) 
CCCc1c2oc(C(=O)O)cc(=O)c2cc2c(=O)cc(C(=O)O)n(CC)c12

$$$$
