
     RDKit          3D

 24 26  0  0  0  0  0  0  0  0999 V2000
   -3.1499    1.5269   -1.4279 C   0  0  0  0  0  0  0  0  0  0  0  0
   -3.7340    0.7975   -0.2894 C   0  0  0  0  0  0  0  0  0  0  0  0
   -5.0117    1.1163    0.0952 C   0  0  0  0  0  0  0  0  0  0  0  0
   -5.6596    0.5229    1.1241 C   0  0  0  0  0  0  0  0  0  0  0  0
   -4.9656   -0.4798    1.8299 C   0  0  0  0  0  0  0  0  0  0  0  0
   -3.6752   -0.7938    1.4327 C   0  0  0  0  0  0  0  0  0  0  0  0
   -3.0503   -0.1988    0.4153 C   0  0  0  0  0  0  0  0  0  0  0  0
   -1.7123   -0.5410    0.0204 N   0  0  0  0  0  0  0  0  0  0  0  0
   -0.6425   -0.3638    0.8580 C   0  0  0  0  0  0  0  0  0  0  0  0
   -0.8108   -0.3709    2.1180 O   0  0  0  0  0  0  0  0  0  0  0  0
    0.6717   -0.1699    0.2692 C   0  0  0  0  0  0  0  0  0  0  0  0
    1.7794    0.0188    1.0617 C   0  0  0  0  0  0  0  0  0  0  0  0
    3.0071    0.2052    0.4608 C   0  0  0  0  0  0  0  0  0  0  0  0
    4.4883    0.4483    1.3707 S   0  0  0  0  0  0  0  0  0  0  0  0
    5.1355    1.9614    0.8858 N   0  0  0  0  0  0  0  0  0  0  0  0
    5.4910   -0.6423    1.1354 O   0  0  0  0  0  0  0  0  0  0  0  0
    4.2348    0.5159    2.8359 O   0  0  0  0  0  0  0  0  0  0  0  0
    3.0717    0.1947   -0.9169 C   0  0  0  0  0  0  0  0  0  0  0  0
    4.6468    0.4374   -1.6843 Cl  0  0  0  0  0  0  0  0  0  0  0  0
    1.9881    0.0094   -1.7492 C   0  0  0  0  0  0  0  0  0  0  0  0
    0.7523   -0.1781   -1.1075 C   0  0  0  0  0  0  0  0  0  0  0  0
   -0.3660   -0.3632   -1.8688 N   0  0  0  0  0  0  0  0  0  0  0  0
   -1.6196   -1.1279   -1.4094 C   0  0  1  0  0  0  0  0  0  0  0  0
   -0.8692   -2.5252   -1.0397 C   0  0  0  0  0  0  0  0  0  0  0  0
  1  2  1  0
  2  3  2  0
  3  4  1  0
  4  5  2  0
  5  6  1  0
  6  7  2  0
  7  8  1  0
  8  9  1  0
  9 10  2  0
  9 11  1  0
 11 12  2  0
 12 13  1  0
 13 14  1  0
 14 15  1  0
 14 16  2  0
 14 17  2  0
 13 18  2  0
 18 19  1  0
 18 20  1  0
 20 21  2  0
 21 22  1  0
 22 23  1  0
 23 24  1  1
  7  2  1  0
 23  8  1  0
 21 11  1  0
M  END
>  <zinc_id>  (1) 
ZINC000000601254

>  <smiles>  (1) 
Cc1ccccc1N1C(=O)c2cc(S(N)(=O)=O)c(Cl)cc2N[C@H]1C

$$$$
