
     RDKit          2D

 10 11  0  0  0  0  0  0  0  0999 V2000
   -3.6494    1.2396    0.0000 N   0  0  0  0  0  0  0  0  0  0  0  0
   -2.6887    0.0876    0.0000 C   0  0  0  0  0  0  0  0  0  0  0  0
   -2.4327   -1.3904    0.0000 C   0  0  0  0  0  0  0  0  0  0  0  0
   -1.2807   -0.4298    0.0000 C   0  0  0  0  0  0  0  0  0  0  0  0
    0.1973   -0.1738    0.0000 C   0  0  0  0  0  0  0  0  0  0  0  0
    1.1579   -1.3258    0.0000 C   0  0  0  0  0  0  0  0  0  0  0  0
    2.6359   -1.0698    0.0000 C   0  0  0  0  0  0  0  0  0  0  0  0
    3.1533    0.3382    0.0000 C   0  0  0  0  0  0  0  0  0  0  0  0
    2.1926    1.4902    0.0000 C   0  0  0  0  0  0  0  0  0  0  0  0
    0.7146    1.2342    0.0000 C   0  0  0  0  0  0  0  0  0  0  0  0
  2  1  1  6
  2  3  1  0
  3  4  1  0
  4  5  1  1
  5  6  2  0
  6  7  1  0
  7  8  2  0
  8  9  1  0
  9 10  2  0
  4  2  1  0
 10  5  1  0
M  END
>  <zinc_id>  (1) 
ZINC000000896663

>  <smiles>  (1) 
N[C@H]1C[C@@H]1c1ccccc1

$$$$
