
     RDKit          3D

 21 21  0  0  0  0  0  0  0  0999 V2000
    7.8620   -0.1604   -2.0491 C   0  0  0  0  0  0  0  0  0  0  0  0
    6.6356   -0.0894   -2.0870 O   0  0  0  0  0  0  0  0  0  0  0  0
    5.8069    0.4543   -1.1388 C   0  0  0  0  0  0  0  0  0  0  0  0
    6.2991    0.9502   -0.0929 O   0  0  0  0  0  0  0  0  0  0  0  0
    4.3098    0.5031   -1.2596 C   0  0  0  0  0  0  0  0  0  0  0  0
    3.7802   -0.6771   -0.5131 C   0  0  0  0  0  0  0  0  0  0  0  0
    2.2969   -0.7790   -0.5340 C   0  0  0  0  0  0  0  0  0  0  0  0
    1.5214   -0.1936    0.4439 C   0  0  0  0  0  0  0  0  0  0  0  0
    0.1445   -0.2714    0.4465 C   0  0  0  0  0  0  0  0  0  0  0  0
   -0.5340   -0.9508   -0.5474 C   0  0  0  0  0  0  0  0  0  0  0  0
   -1.9120   -1.0168   -0.5258 O   0  0  0  0  0  0  0  0  0  0  0  0
   -2.6310   -0.3945    0.5074 C   0  0  0  0  0  0  0  0  0  0  0  0
   -4.1955   -0.7253    0.1318 C   0  0  2  0  0  0  0  0  0  0  0  0
   -4.1104   -0.0213   -1.2009 O   0  0  0  0  0  0  0  0  0  0  0  0
   -4.8409    0.5736    0.8780 C   0  0  0  0  0  0  0  0  0  0  0  0
   -5.0725    0.2724    2.2233 N   0  0  0  0  0  0  0  0  0  0  0  0
   -5.6185    1.2863    3.0021 C   0  0  0  0  0  0  0  0  0  0  0  0
   -4.6184    2.4543    3.0298 C   0  0  0  0  0  0  0  0  0  0  0  0
   -6.9821    1.7797    2.6304 C   0  0  0  0  0  0  0  0  0  0  0  0
    0.2415   -1.5359   -1.5247 C   0  0  0  0  0  0  0  0  0  0  0  0
    1.6173   -1.4584   -1.5274 C   0  0  0  0  0  0  0  0  0  0  0  0
  1  2  1  0
  2  3  1  0
  3  4  2  0
  3  5  1  0
  5  6  1  0
  6  7  1  0
  7  8  2  0
  8  9  1  0
  9 10  2  0
 10 11  1  0
 11 12  1  0
 12 13  1  0
 13 14  1  6
 13 15  1  0
 15 16  1  0
 16 17  1  0
 17 18  1  0
 17 19  1  0
 10 20  1  0
 20 21  2  0
 21  7  1  0
M  END
>  <zinc_id>  (1) 
ZINC000000000257

>  <smiles>  (1) 
COC(=O)CCc1ccc(OC[C@H](O)CNC(C)C)cc1

$$$$
