
     RDKit          3D

 21 23  0  0  0  0  0  0  0  0999 V2000
   -2.6895    3.0769    1.6847 C   0  0  0  0  0  0  0  0  0  0  0  0
   -3.0495    1.7464    2.0679 C   0  0  0  0  0  0  0  0  0  0  0  0
   -3.0368    0.8013    0.9212 C   0  0  0  0  0  0  0  0  0  0  0  0
   -4.2042    0.3911    0.3542 C   0  0  0  0  0  0  0  0  0  0  0  0
   -4.2085   -0.4872   -0.7113 C   0  0  0  0  0  0  0  0  0  0  0  0
   -3.0263   -0.9772   -1.2349 C   0  0  0  0  0  0  0  0  0  0  0  0
   -1.8554   -0.5533   -0.6515 C   0  0  0  0  0  0  0  0  0  0  0  0
   -0.5502   -0.8475   -0.9331 C   0  0  0  0  0  0  0  0  0  0  0  0
    0.2752   -0.1492   -0.0382 C   0  0  0  0  0  0  0  0  0  0  0  0
   -0.5360    0.5538    0.7678 N   0  0  0  0  0  0  0  0  0  0  0  0
   -1.8384    0.3363    0.4285 C   0  0  0  0  0  0  0  0  0  0  0  0
    1.7390   -0.3617   -0.2098 C   0  0  1  0  0  0  0  0  0  0  0  0
    2.1612    0.3411   -1.5003 C   0  0  0  0  0  0  0  0  0  0  0  0
    1.8192    1.8081   -1.3160 C   0  0  0  0  0  0  0  0  0  0  0  0
    2.4532    0.1888    0.9910 C   0  0  0  0  0  0  0  0  0  0  0  0
    3.9155    0.0337    0.9296 C   0  0  0  0  0  0  0  0  0  0  0  0
    4.5760    0.4738    1.9134 O   0  0  0  0  0  0  0  0  0  0  0  0
    4.6184   -0.5420   -0.0962 O   0  0  0  0  0  0  0  0  0  0  0  0
    2.0262   -1.6899   -0.3367 O   0  0  0  0  0  0  0  0  0  0  0  0
    1.2215   -2.4537   -1.1202 C   0  0  0  0  0  0  0  0  0  0  0  0
    0.1892   -1.6895   -1.9101 C   0  0  0  0  0  0  0  0  0  0  0  0
  1  2  1  0
  2  3  1  0
  3  4  2  0
  4  5  1  0
  5  6  2  0
  6  7  1  0
  7  8  1  0
  8  9  2  0
  9 10  1  0
 10 11  1  0
  9 12  1  0
 12 13  1  6
 13 14  1  0
 12 15  1  0
 15 16  1  0
 16 17  2  0
 16 18  1  0
 12 19  1  0
 19 20  1  0
 20 21  1  0
 11  3  1  0
 11  7  2  0
 21  8  1  0
M  END
>  <zinc_id>  (1) 
ZINC000000003642

>  <smiles>  (1) 
CCc1cccc2c3c([nH]c12)[C@@](CC)(CC(=O)O)OCC3

$$$$
