
     RDKit          3D

 43 49  0  0  0  0  0  0  0  0999 V2000
   -0.9665   -3.2884   -2.2977 C   0  0  0  0  0  0  0  0  0  0  0  0
   -0.7262   -3.0822   -0.8602 C   0  0  0  0  0  0  0  0  0  0  0  0
   -1.1168   -1.7069   -0.4597 C   0  0  0  0  0  0  0  0  0  0  0  0
   -2.4561   -1.3432   -0.3013 C   0  0  0  0  0  0  0  0  0  0  0  0
   -2.8153   -0.0701    0.0674 C   0  0  0  0  0  0  0  0  0  0  0  0
   -1.8476    0.8467    0.2811 N   0  0  0  0  0  0  0  0  0  0  0  0
   -0.5302    0.5470    0.1413 C   0  0  0  0  0  0  0  0  0  0  0  0
    0.4379    1.5001    0.3604 C   0  0  0  0  0  0  0  0  0  0  0  0
    1.7685    1.2017    0.2150 C   0  0  0  0  0  0  0  0  0  0  0  0
    2.1766   -0.0762   -0.1585 C   0  0  0  0  0  0  0  0  0  0  0  0
    3.4963   -0.4151   -0.3172 O   0  0  0  0  0  0  0  0  0  0  0  0
    4.3545   -0.8538    0.6797 C   0  0  0  0  0  0  0  0  0  0  0  0
    3.8352   -0.9461    1.8464 O   0  0  0  0  0  0  0  0  0  0  0  0
    5.7036   -1.1759    0.4416 N   0  0  0  0  0  0  0  0  0  0  0  0
    6.5478   -1.6166    1.5129 C   0  0  0  0  0  0  0  0  0  0  0  0
    7.6001   -0.5399    1.7010 C   0  0  0  0  0  0  0  0  0  0  0  0
    8.2743   -0.2447    0.4104 C   0  0  0  0  0  0  0  0  0  0  0  0
    8.9836    1.0305    0.5921 N   0  0  0  0  0  0  0  0  0  0  0  0
   10.0055    0.9792    1.5828 C   0  0  0  0  0  0  0  0  0  0  0  0
   11.3192    0.5596    0.9892 C   0  0  0  0  0  0  0  0  0  0  0  0
   11.1647   -0.2622   -0.2541 C   0  0  0  0  0  0  0  0  0  0  0  0
   10.4650    0.5629   -1.3041 C   0  0  0  0  0  0  0  0  0  0  0  0
    9.4155    1.4598   -0.7148 C   0  0  0  0  0  0  0  0  0  0  0  0
    7.3984   -0.0594   -0.7788 C   0  0  0  0  0  0  0  0  0  0  0  0
    6.2586   -1.0522   -0.8803 C   0  0  0  0  0  0  0  0  0  0  0  0
    1.1896   -1.0015   -0.3679 C   0  0  0  0  0  0  0  0  0  0  0  0
   -0.1688   -0.7301   -0.2289 C   0  0  0  0  0  0  0  0  0  0  0  0
   -4.2696   -0.0172    0.1359 C   0  0  0  0  0  0  0  0  0  0  0  0
   -5.1592    1.0049    0.4485 C   0  0  0  0  0  0  0  0  0  0  0  0
   -6.5261    0.8284    0.4445 C   0  0  0  0  0  0  0  0  0  0  0  0
   -7.0212   -0.4159    0.1157 C   0  0  0  0  0  0  0  0  0  0  0  0
   -6.1287   -1.4125   -0.1896 C   0  0  0  0  0  0  0  0  0  0  0  0
   -6.5620   -2.5579   -0.4936 O   0  0  0  0  0  0  0  0  0  0  0  0
   -4.7684   -1.2132   -0.1790 N   0  0  0  0  0  0  0  0  0  0  0  0
   -3.6889   -2.1250   -0.4669 C   0  0  0  0  0  0  0  0  0  0  0  0
   -8.5047   -0.6742    0.0896 C   0  0  0  0  0  0  0  0  0  0  0  0
   -9.1646    0.4848   -0.3850 O   0  0  0  0  0  0  0  0  0  0  0  0
   -8.7189    1.7373   -0.0208 C   0  0  0  0  0  0  0  0  0  0  0  0
   -9.3963    2.7523   -0.3912 O   0  0  0  0  0  0  0  0  0  0  0  0
   -7.4919    1.9083    0.7763 C   0  0  1  0  0  0  0  0  0  0  0  0
   -7.8584    1.8637    2.1220 O   0  0  0  0  0  0  0  0  0  0  0  0
   -6.8025    3.2293    0.4653 C   0  0  0  0  0  0  0  0  0  0  0  0
   -7.7062    4.3838    0.7689 C   0  0  0  0  0  0  0  0  0  0  0  0
  1  2  1  0
  2  3  1  0
  3  4  2  0
  4  5  1  0
  5  6  2  0
  6  7  1  0
  7  8  2  0
  8  9  1  0
  9 10  2  0
 10 11  1  0
 11 12  1  0
 12 13  2  0
 12 14  1  0
 14 15  1  0
 15 16  1  0
 16 17  1  0
 17 18  1  0
 18 19  1  0
 19 20  1  0
 20 21  1  0
 21 22  1  0
 22 23  1  0
 17 24  1  0
 24 25  1  0
 10 26  1  0
 26 27  2  0
  5 28  1  0
 28 29  2  0
 29 30  1  0
 30 31  2  0
 31 32  1  0
 32 33  2  0
 32 34  1  0
 34 35  1  0
 31 36  1  0
 36 37  1  0
 37 38  1  0
 38 39  2  0
 38 40  1  0
 40 41  1  1
 40 42  1  0
 42 43  1  0
 27  3  1  0
 34 28  1  0
 35  4  1  0
 27  7  1  0
 40 30  1  0
 25 14  1  0
 23 18  1  0
M  END
>  <zinc_id>  (1) 
ZINC000001612996

>  <smiles>  (1) 
CCc1c2c(nc3ccc(OC(=O)N4CCC(N5CCCCC5)CC4)cc13)-c1cc3c(c(=O)n1C2)COC(=O)[C@]3(O)CC

$$$$
