
     RDKit          3D

 25 27  0  0  0  0  0  0  0  0999 V2000
    6.7438   -0.4554    1.1553 Cl  0  0  0  0  0  0  0  0  0  0  0  0
    5.1153   -0.5969    0.7618 C   0  0  0  0  0  0  0  0  0  0  0  0
    4.2956    0.5026    0.8300 C   0  0  0  0  0  0  0  0  0  0  0  0
    2.9529    0.3812    0.5110 C   0  0  0  0  0  0  0  0  0  0  0  0
    2.3800   -0.8039    0.1218 C   0  0  0  0  0  0  0  0  0  0  0  0
    0.9725   -0.8502   -0.1993 C   0  0  0  0  0  0  0  0  0  0  0  0
    0.3965    0.3671   -0.0473 O   0  0  0  0  0  0  0  0  0  0  0  0
   -1.1849   -0.0429   -0.4868 C   0  0  1  0  0  0  0  0  0  0  0  0
   -1.1363   -1.0281    0.7287 C   0  0  0  0  0  0  0  0  0  0  0  0
   -2.2721   -1.9397    0.5071 N   0  0  0  0  0  0  0  0  0  0  0  0
   -1.9556   -3.0695   -0.3433 C   0  0  0  0  0  0  0  0  0  0  0  0
   -3.1039   -3.8155   -0.4406 C   0  0  0  0  0  0  0  0  0  0  0  0
   -4.0788   -3.2410    0.2702 N   0  0  0  0  0  0  0  0  0  0  0  0
   -3.4933   -2.1661    0.7767 C   0  0  0  0  0  0  0  0  0  0  0  0
   -1.5367    1.3857   -0.1485 C   0  0  0  0  0  0  0  0  0  0  0  0
   -0.5171    2.2639   -0.6758 C   0  0  0  0  0  0  0  0  0  0  0  0
   -0.6786    3.6031   -0.7797 C   0  0  0  0  0  0  0  0  0  0  0  0
   -1.8317    4.2130   -0.3729 C   0  0  0  0  0  0  0  0  0  0  0  0
   -2.0270    5.9397   -0.5187 Cl  0  0  0  0  0  0  0  0  0  0  0  0
   -2.8386    3.4080    0.1496 C   0  0  0  0  0  0  0  0  0  0  0  0
   -2.6189    2.0228    0.2296 C   0  0  0  0  0  0  0  0  0  0  0  0
   -3.8744    1.0784    1.0344 Cl  0  0  0  0  0  0  0  0  0  0  0  0
    3.2163   -1.9214    0.0537 C   0  0  0  0  0  0  0  0  0  0  0  0
    2.5296   -3.4426   -0.4407 Cl  0  0  0  0  0  0  0  0  0  0  0  0
    4.5455   -1.7924    0.3729 C   0  0  0  0  0  0  0  0  0  0  0  0
  1  2  1  0
  2  3  2  0
  3  4  1  0
  4  5  2  0
  5  6  1  0
  6  7  1  0
  7  8  1  0
  8  9  1  1
  9 10  1  0
 10 11  1  0
 11 12  2  0
 12 13  1  0
 13 14  2  0
  8 15  1  0
 15 16  2  0
 16 17  1  0
 17 18  2  0
 18 19  1  0
 18 20  1  0
 20 21  2  0
 21 22  1  0
  5 23  1  0
 23 24  1  0
 23 25  2  0
 25  2  1  0
 14 10  1  0
 21 15  1  0
M  END
>  <zinc_id>  (1) 
ZINC000000896740

>  <smiles>  (1) 
Clc1ccc(CO[C@@H](Cn2ccnc2)c2ccc(Cl)cc2Cl)c(Cl)c1

$$$$
