
     RDKit          3D

 28 31  0  0  0  0  0  0  0  0999 V2000
   -4.2926    2.1777    2.0485 C   0  0  0  0  0  0  0  0  0  0  0  0
   -3.8913    1.4899    0.7778 C   0  0  0  0  0  0  0  0  0  0  0  0
   -3.9714    2.0190   -0.3372 O   0  0  0  0  0  0  0  0  0  0  0  0
   -3.4187    0.2280    0.8590 O   0  0  0  0  0  0  0  0  0  0  0  0
   -2.9829   -0.6487   -0.1026 C   0  0  2  0  0  0  0  0  0  0  0  0
   -3.9770   -1.0395   -1.1375 C   0  0  0  0  0  0  0  0  0  0  0  0
   -5.3861   -0.5638   -1.1452 C   0  0  0  0  0  0  0  0  0  0  0  0
   -3.6524   -1.7889   -2.0404 O   0  0  0  0  0  0  0  0  0  0  0  0
   -2.7760   -1.9658    0.6915 C   0  0  0  0  0  0  0  0  0  0  0  0
   -1.3144   -2.1538    0.8936 C   0  0  0  0  0  0  0  0  0  0  0  0
   -0.8931   -0.5929    0.8485 C   0  0  1  0  0  0  0  0  0  0  0  0
    0.6440   -0.8805    0.1518 C   0  0  2  0  0  0  0  0  0  0  0  0
    1.2974   -1.1955    1.5254 C   0  0  0  0  0  0  0  0  0  0  0  0
    2.5186   -0.7575    1.6788 C   0  0  0  0  0  0  0  0  0  0  0  0
    3.2138   -1.0345    2.9977 C   0  0  0  0  0  0  0  0  0  0  0  0
    3.2620   -0.0105    0.6812 C   0  0  0  0  0  0  0  0  0  0  0  0
    4.5989    0.1365    0.7298 C   0  0  0  0  0  0  0  0  0  0  0  0
    5.1863    0.9253   -0.3620 C   0  0  0  0  0  0  0  0  0  0  0  0
    6.2779    0.6250   -0.8790 O   0  0  0  0  0  0  0  0  0  0  0  0
    4.4579    2.0918   -0.8438 C   0  0  0  0  0  0  0  0  0  0  0  0
    2.9631    1.9957   -0.7475 C   0  0  0  0  0  0  0  0  0  0  0  0
    2.4713    0.6093   -0.4291 C   0  0  1  0  0  0  0  0  0  0  0  0
    2.4258   -0.2300   -1.6478 C   0  0  0  0  0  0  0  0  0  0  0  0
    0.9793    0.7680    0.1789 C   0  0  1  0  0  0  0  0  0  0  0  0
    0.2617    1.0045   -1.2791 C   0  0  0  0  0  0  0  0  0  0  0  0
   -1.2036    0.8673   -1.0637 C   0  0  0  0  0  0  0  0  0  0  0  0
   -1.6070   -0.4504   -0.6225 C   0  0  2  0  0  0  0  0  0  0  0  0
   -1.1916   -1.6257   -1.4253 C   0  0  0  0  0  0  0  0  0  0  0  0
  1  2  1  0
  2  3  2  0
  2  4  1  0
  5  4  1  1
  5  6  1  0
  6  7  1  0
  6  8  2  0
  5  9  1  0
  9 10  1  0
 11 10  1  6
 11 12  1  0
 12 13  1  1
 13 14  2  0
 14 15  1  0
 14 16  1  0
 16 17  2  0
 17 18  1  0
 18 19  2  0
 18 20  1  0
 20 21  1  0
 21 22  1  0
 22 23  1  6
 22 24  1  0
 24 25  1  6
 25 26  1  0
 26 27  1  0
 27 28  1  6
 27  5  1  0
 27 11  1  0
 24 12  1  0
 22 16  1  0
M  END
>  <zinc_id>  (1) 
ZINC000004097467

>  <smiles>  (1) 
CC(=O)O[C@]1(C(C)=O)CC[C@H]2[C@@H]3C=C(C)C4=CC(=O)CC[C@]4(C)[C@H]3CC[C@@]21C

$$$$
