
     RDKit          3D

 19 19  0  0  0  0  0  0  0  0999 V2000
    7.0708   -0.5787   -0.9131 C   0  0  0  0  0  0  0  0  0  0  0  0
    6.6527   -0.6635   -0.2118 O   0  0  0  0  0  0  0  0  0  0  0  0
    5.2508   -0.7149   -0.1326 C   0  0  0  0  0  0  0  0  0  0  0  0
    4.6936    0.5649   -0.6885 C   0  0  0  0  0  0  0  0  0  0  0  0
    3.2423    0.6129   -0.6506 C   0  0  0  0  0  0  0  0  0  0  0  0
    2.5794    1.1274    0.4333 C   0  0  0  0  0  0  0  0  0  0  0  0
    1.1858    1.1614    0.4412 C   0  0  0  0  0  0  0  0  0  0  0  0
    0.4692    0.6890   -0.6175 C   0  0  0  0  0  0  0  0  0  0  0  0
   -0.8726    0.6916   -0.6720 O   0  0  0  0  0  0  0  0  0  0  0  0
   -1.7237    1.1570    0.2962 C   0  0  0  0  0  0  0  0  0  0  0  0
   -3.2377    0.9001   -0.3330 C   0  0  2  0  0  0  0  0  0  0  0  0
   -3.9325    1.4702    0.8704 O   0  0  0  0  0  0  0  0  0  0  0  0
   -3.3329   -0.6561    0.1412 C   0  0  0  0  0  0  0  0  0  0  0  0
   -4.6730   -1.0159    0.2403 N   0  0  0  0  0  0  0  0  0  0  0  0
   -5.3604   -0.4200    1.3357 C   0  0  0  0  0  0  0  0  0  0  0  0
   -4.8151   -0.8473    2.6499 C   0  0  0  0  0  0  0  0  0  0  0  0
   -6.8474   -0.5015    1.2637 C   0  0  0  0  0  0  0  0  0  0  0  0
    1.1316    0.1590   -1.7337 C   0  0  0  0  0  0  0  0  0  0  0  0
    2.5189    0.1355   -1.7191 C   0  0  0  0  0  0  0  0  0  0  0  0
  1  2  1  0
  2  3  1  0
  3  4  1  0
  4  5  1  0
  5  6  2  0
  6  7  1  0
  7  8  2  0
  8  9  1  0
  9 10  1  0
 10 11  1  0
 11 12  1  1
 11 13  1  0
 13 14  1  0
 14 15  1  0
 15 16  1  0
 15 17  1  0
  8 18  1  0
 18 19  2  0
 19  5  1  0
M  END
>  <zinc_id>  (1) 
ZINC000001530718

>  <smiles>  (1) 
COCCc1ccc(OC[C@H](O)CNC(C)C)cc1

$$$$
