
     RDKit          3D

 13 13  0  0  0  0  0  0  0  0999 V2000
   -0.6571   -2.3552    0.7874 C   0  0  0  0  0  0  0  0  0  0  0  0
   -1.2599   -1.0894    0.2958 C   0  0  0  0  0  0  0  0  0  0  0  0
   -2.6350   -1.0457    0.2342 C   0  0  0  0  0  0  0  0  0  0  0  0
   -3.2272    0.0934   -0.2091 C   0  0  0  0  0  0  0  0  0  0  0  0
   -2.4566    1.1633   -0.5818 C   0  0  0  0  0  0  0  0  0  0  0  0
   -1.0790    1.1305   -0.5243 C   0  0  0  0  0  0  0  0  0  0  0  0
   -0.2591    2.3182   -0.9389 C   0  0  0  0  0  0  0  0  0  0  0  0
   -0.4538   -0.0200   -0.0756 C   0  0  0  0  0  0  0  0  0  0  0  0
    0.8896   -0.0917   -0.0047 O   0  0  0  0  0  0  0  0  0  0  0  0
    1.6772    0.2488    1.0751 C   0  0  0  0  0  0  0  0  0  0  0  0
    3.2424   -0.0066    0.6960 C   0  0  1  0  0  0  0  0  0  0  0  0
    2.9561   -1.3275   -0.2261 C   0  0  0  0  0  0  0  0  0  0  0  0
    3.2622    0.9817   -0.5281 N   0  0  0  0  0  0  0  0  0  0  0  0
  1  2  1  0
  2  3  2  0
  3  4  1  0
  4  5  2  0
  5  6  1  0
  6  7  1  0
  6  8  2  0
  8  9  1  0
  9 10  1  0
 10 11  1  0
 11 12  1  6
 11 13  1  0
  8  2  1  0
M  END
>  <zinc_id>  (1) 
ZINC000000020257

>  <smiles>  (1) 
Cc1cccc(C)c1OC[C@@H](C)N

$$$$
