
     RDKit          3D

 25 27  0  0  0  0  0  0  0  0999 V2000
   -6.5757    0.2484    3.0164 C   0  0  0  0  0  0  0  0  0  0  0  0
   -6.7065    0.7776    1.8526 O   0  0  0  0  0  0  0  0  0  0  0  0
   -6.0272    0.0759    0.8334 C   0  0  0  0  0  0  0  0  0  0  0  0
   -6.2445    0.9042   -0.4127 C   0  0  0  0  0  0  0  0  0  0  0  0
   -5.4606    0.3470   -1.6220 C   0  0  0  0  0  0  0  0  0  0  0  0
   -4.1571    0.2778   -1.2257 O   0  0  0  0  0  0  0  0  0  0  0  0
   -2.9979    0.0445   -1.8413 C   0  0  0  0  0  0  0  0  0  0  0  0
   -2.7471   -0.1535   -3.1671 C   0  0  0  0  0  0  0  0  0  0  0  0
   -1.5148   -0.3564   -3.7044 C   0  0  0  0  0  0  0  0  0  0  0  0
   -0.4025   -0.3735   -2.9155 N   0  0  0  0  0  0  0  0  0  0  0  0
   -0.6202   -0.1903   -1.6063 C   0  0  0  0  0  0  0  0  0  0  0  0
    0.5173   -0.4037   -0.6649 C   0  0  0  0  0  0  0  0  0  0  0  0
    1.4422    1.1159   -0.4732 S   0  0  0  0  0  0  0  0  0  0  0  0
    1.9597    1.5718   -1.7668 O   0  0  0  0  0  0  0  0  0  0  0  0
    2.8250    0.6112    0.5509 C   0  0  0  0  0  0  0  0  0  0  0  0
    3.9595    0.1348   -0.0411 N   0  0  0  0  0  0  0  0  0  0  0  0
    4.8600   -0.1754    0.8770 C   0  0  0  0  0  0  0  0  0  0  0  0
    6.1418   -0.6836    0.7473 C   0  0  0  0  0  0  0  0  0  0  0  0
    6.8365   -0.9057    1.8847 C   0  0  0  0  0  0  0  0  0  0  0  0
    6.3433   -0.6446    3.1222 C   0  0  0  0  0  0  0  0  0  0  0  0
    5.0384   -0.1285    3.2213 C   0  0  0  0  0  0  0  0  0  0  0  0
    4.2732    0.1124    2.0794 C   0  0  0  0  0  0  0  0  0  0  0  0
    3.0106    0.6008    1.8610 N   0  0  0  0  0  0  0  0  0  0  0  0
   -1.8276    0.0085   -1.0461 C   0  0  0  0  0  0  0  0  0  0  0  0
   -1.9259    0.2072    0.4409 C   0  0  0  0  0  0  0  0  0  0  0  0
  1  2  1  0
  2  3  1  0
  3  4  1  0
  4  5  1  0
  5  6  1  0
  6  7  1  0
  7  8  2  0
  8  9  1  0
  9 10  2  0
 10 11  1  0
 11 12  1  0
 13 12  1  6
 13 14  2  0
 13 15  1  0
 15 16  2  0
 16 17  1  0
 17 18  2  0
 18 19  1  0
 19 20  2  0
 20 21  1  0
 21 22  2  0
 22 23  1  0
 11 24  2  0
 24 25  1  0
 24  7  1  0
 23 15  1  0
 22 17  1  0
M  END
>  <zinc_id>  (1) 
ZINC000001530935

>  <smiles>  (1) 
COCCCOc1ccnc(C[S@](=O)c2nc3ccccc3[nH]2)c1C

$$$$
