
     RDKit          3D

 19 21  0  0  0  0  0  0  0  0999 V2000
    5.3214    0.1255   -1.3146 N   0  0  0  0  0  0  0  0  0  0  0  0
    3.9724    0.2060   -0.8407 C   0  0  0  0  0  0  0  0  0  0  0  0
    3.6513    0.9459    0.2355 N   0  0  0  0  0  0  0  0  0  0  0  0
    2.4135    1.0622    0.7270 C   0  0  0  0  0  0  0  0  0  0  0  0
    2.1315    1.8698    1.8831 N   0  0  0  0  0  0  0  0  0  0  0  0
    1.3748    0.3735    0.0885 C   0  0  0  0  0  0  0  0  0  0  0  0
    0.1288    0.4724    0.5590 N   0  0  0  0  0  0  0  0  0  0  0  0
   -0.8577   -0.1945   -0.0645 C   0  0  0  0  0  0  0  0  0  0  0  0
   -2.2454   -0.1215    0.4099 C   0  0  0  0  0  0  0  0  0  0  0  0
   -2.5227   -0.2366    1.7352 C   0  0  0  0  0  0  0  0  0  0  0  0
   -3.8405   -0.1674    2.1870 C   0  0  0  0  0  0  0  0  0  0  0  0
   -4.8424    0.0179    1.2718 C   0  0  0  0  0  0  0  0  0  0  0  0
   -4.5960    0.1385   -0.0798 C   0  0  0  0  0  0  0  0  0  0  0  0
   -3.2603    0.0630   -0.4867 C   0  0  0  0  0  0  0  0  0  0  0  0
   -0.5547   -0.9660   -1.1781 C   0  0  0  0  0  0  0  0  0  0  0  0
   -1.6079   -1.6776   -1.8433 N   0  0  0  0  0  0  0  0  0  0  0  0
    0.6941   -1.0728   -1.6599 N   0  0  0  0  0  0  0  0  0  0  0  0
    1.6794   -0.3917   -1.0170 C   0  0  0  0  0  0  0  0  0  0  0  0
    2.9605   -0.4467   -1.4384 N   0  0  0  0  0  0  0  0  0  0  0  0
  1  2  1  0
  2  3  2  0
  3  4  1  0
  4  5  1  0
  4  6  2  0
  6  7  1  0
  7  8  2  0
  8  9  1  0
  9 10  2  0
 10 11  1  0
 11 12  2  0
 12 13  1  0
 13 14  2  0
  8 15  1  0
 15 16  1  0
 15 17  2  0
 17 18  1  0
 18 19  2  0
 19  2  1  0
 18  6  1  0
 14  9  1  0
M  END
>  <zinc_id>  (1) 
ZINC000000120286

>  <smiles>  (1) 
Nc1nc(N)c2nc(-c3ccccc3)c(N)nc2n1

$$$$
