
     RDKit          3D

 11 12  0  0  0  0  0  0  0  0999 V2000
   -1.4566   -0.1416   -0.5448 C   0  0  0  0  0  0  0  0  0  0  0  0
   -0.9524   -0.3464   -0.4139 C   0  0  0  0  0  0  0  0  0  0  0  0
   -0.3085   -1.4752   -1.2606 C   0  0  0  0  0  0  0  0  0  0  0  0
   -0.7096   -0.9907    1.0840 C   0  0  2  0  0  0  0  0  0  0  0  0
   -0.9757    0.4377    1.8011 C   0  0  0  0  0  0  0  0  0  0  0  0
   -0.2460    1.4008    0.9668 C   0  0  0  0  0  0  0  0  0  0  0  0
    0.1243    0.7624   -0.3174 C   0  0  2  0  0  0  0  0  0  0  0  0
    0.1534    1.5828   -1.5104 C   0  0  0  0  0  0  0  0  0  0  0  0
    1.2471   -0.1508   -0.0891 C   0  0  0  0  0  0  0  0  0  0  0  0
    2.2234   -0.2097   -0.8190 O   0  0  0  0  0  0  0  0  0  0  0  0
    0.9007   -0.8692    1.1033 C   0  0  0  0  0  0  0  0  0  0  0  0
  1  2  1  0
  2  3  1  0
  2  4  1  0
  4  5  1  1
  5  6  1  0
  6  7  1  0
  7  8  1  6
  7  9  1  0
  9 10  2  0
  9 11  1  0
  7  2  1  0
 11  4  1  0
M  END
>  <zinc_id>  (1) 
ZINC000000967520

>  <smiles>  (1) 
CC1(C)[C@@H]2CC[C@@]1(C)C(=O)C2

$$$$
