
     RDKit          3D

 23 25  0  0  0  0  0  0  0  0999 V2000
    3.8141    1.3888   -0.6864 C   0  0  0  0  0  0  0  0  0  0  0  0
    2.8643    1.5367    0.4077 N   0  0  0  0  0  0  0  0  0  0  0  0
    3.4684    0.7567    1.8165 S   0  0  0  0  0  0  0  0  0  0  0  0
    4.8030    1.4095    2.1658 O   0  0  0  0  0  0  0  0  0  0  0  0
    2.5842    1.0351    3.0127 O   0  0  0  0  0  0  0  0  0  0  0  0
    3.6631   -0.9524    1.5163 C   0  0  0  0  0  0  0  0  0  0  0  0
    2.4864   -1.7422    1.1883 C   0  0  0  0  0  0  0  0  0  0  0  0
    1.6898   -1.4394    0.0189 C   0  0  0  0  0  0  0  0  0  0  0  0
    1.9527   -1.9571   -1.2474 C   0  0  0  0  0  0  0  0  0  0  0  0
    1.1860   -1.6929   -2.3570 C   0  0  0  0  0  0  0  0  0  0  0  0
    0.0873   -0.8682   -2.2268 C   0  0  0  0  0  0  0  0  0  0  0  0
   -0.8577   -0.4118   -3.0899 N   0  0  0  0  0  0  0  0  0  0  0  0
   -1.7286    0.3832   -2.4417 C   0  0  0  0  0  0  0  0  0  0  0  0
   -1.3491    0.4532   -1.1182 C   0  0  0  0  0  0  0  0  0  0  0  0
   -1.9622    1.1852    0.0025 C   0  0  0  0  0  0  0  0  0  0  0  0
   -3.1760    1.9530   -0.4080 C   0  0  0  0  0  0  0  0  0  0  0  0
   -4.3614    1.0647   -0.7029 C   0  0  0  0  0  0  0  0  0  0  0  0
   -4.1654   -0.2818   -0.1966 N   0  0  0  0  0  0  0  0  0  0  0  0
   -5.4797   -0.9115   -0.1517 C   0  0  0  0  0  0  0  0  0  0  0  0
   -3.6431   -0.2588    1.1642 C   0  0  0  0  0  0  0  0  0  0  0  0
   -2.2418    0.3003    1.1915 C   0  0  0  0  0  0  0  0  0  0  0  0
   -0.2101   -0.3338   -0.9912 C   0  0  0  0  0  0  0  0  0  0  0  0
    0.5760   -0.6165    0.1004 C   0  0  0  0  0  0  0  0  0  0  0  0
  1  2  1  0
  2  3  1  0
  3  4  2  0
  3  5  2  0
  3  6  1  0
  6  7  1  0
  7  8  1  0
  8  9  2  0
  9 10  1  0
 10 11  2  0
 11 12  1  0
 12 13  1  0
 13 14  2  0
 14 15  1  0
 15 16  1  0
 16 17  1  0
 17 18  1  0
 18 19  1  0
 18 20  1  0
 20 21  1  0
 14 22  1  0
 22 23  2  0
 23  8  1  0
 22 11  1  0
 21 15  1  0
M  END
>  <zinc_id>  (1) 
ZINC000000004076

>  <smiles>  (1) 
CNS(=O)(=O)CCc1ccc2[nH]cc(C3CCN(C)CC3)c2c1

$$$$
