
     RDKit          2D

 21 25  0  0  0  0  0  0  0  0999 V2000
   -0.6194   -4.2683    0.0000 C   0  0  0  0  0  0  0  0  0  0  0  0
    0.0412   -2.1698    0.0000 N   0  0  0  0  0  0  0  0  0  0  0  0
   -0.4995   -1.5802    0.0000 C   0  0  0  0  0  0  0  0  0  0  0  0
   -0.2593   -0.8172    0.0000 C   0  0  0  0  0  0  0  0  0  0  0  0
    0.7319    0.0240    0.0000 C   0  0  0  0  0  0  0  0  0  0  0  0
   -0.7680    0.0103    0.0000 C   0  0  0  0  0  0  0  0  0  0  0  0
   -1.2446    1.4326    0.0000 C   0  0  0  0  0  0  0  0  0  0  0  0
   -2.7146    1.7310    0.0000 C   0  0  0  0  0  0  0  0  0  0  0  0
   -3.1912    3.1533    0.0000 O   0  0  0  0  0  0  0  0  0  0  0  0
   -3.7081    0.6071    0.0000 C   0  0  0  0  0  0  0  0  0  0  0  0
   -3.2315   -0.8152    0.0000 C   0  0  0  0  0  0  0  0  0  0  0  0
   -1.7615   -1.1136    0.0000 C   0  0  0  0  0  0  0  0  0  0  0  0
    0.4261   -1.2897    0.0000 C   0  0  0  0  0  0  0  0  0  0  0  0
    1.2953   -2.5122    0.0000 C   0  0  0  0  0  0  0  0  0  0  0  0
    1.7458   -1.0815    0.0000 C   0  0  0  0  0  0  0  0  0  0  0  0
    3.2101   -0.7562    0.0000 C   0  0  0  0  0  0  0  0  0  0  0  0
    3.6605    0.6746    0.0000 C   0  0  0  0  0  0  0  0  0  0  0  0
    2.6466    1.7801    0.0000 C   0  0  0  0  0  0  0  0  0  0  0  0
    3.0971    3.2109    0.0000 O   0  0  0  0  0  0  0  0  0  0  0  0
    1.1823    1.4548    0.0000 C   0  0  0  0  0  0  0  0  0  0  0  0
   -0.0392    2.3253    0.0000 O   0  0  0  0  0  0  0  0  0  0  0  0
  1  2  1  0
  2  3  1  0
  3  4  1  0
  5  4  1  6
  5  6  1  0
  6  7  2  0
  7  8  1  0
  8  9  1  0
  8 10  2  0
 10 11  1  0
 11 12  2  0
 12 13  1  0
 14 13  1  1
 14 15  1  0
 15 16  1  1
 16 17  2  0
 17 18  1  0
 18 19  1  1
 18 20  1  0
 20 21  1  1
 14  2  1  0
 15  5  1  0
 20  5  1  0
 12  6  1  0
 21  7  1  0
M  END
>  <zinc_id>  (1) 
ZINC000003812983

>  <smiles>  (1) 
CN1CC[C@]23c4c5ccc(O)c4O[C@H]2[C@@H](O)C=C[C@H]3[C@H]1C5

$$$$
