
     RDKit          3D

 23 26  0  0  0  0  0  0  0  0999 V2000
    2.3136    1.6012    0.2473 O   0  0  0  0  0  0  0  0  0  0  0  0
    2.2461    0.7455   -0.1839 C   0  0  0  0  0  0  0  0  0  0  0  0
    3.4487   -0.1320   -0.4197 C   0  0  0  0  0  0  0  0  0  0  0  0
    3.3238   -1.4568    0.2647 C   0  0  0  0  0  0  0  0  0  0  0  0
    4.4855   -1.6425    1.2033 C   0  0  0  0  0  0  0  0  0  0  0  0
    4.5872   -0.4970    2.2047 C   0  0  0  0  0  0  0  0  0  0  0  0
    4.7268    0.8329    1.5092 C   0  0  0  0  0  0  0  0  0  0  0  0
    4.6628    0.6212    0.0316 C   0  0  0  0  0  0  0  0  0  0  0  0
    0.9982    0.2384   -0.6352 N   0  0  0  0  0  0  0  0  0  0  0  0
    0.9334   -1.0664   -1.2864 C   0  0  0  0  0  0  0  0  0  0  0  0
   -0.4727   -1.5502   -1.1350 C   0  0  0  0  0  0  0  0  0  0  0  0
   -0.9128   -2.2991   -2.0373 O   0  0  0  0  0  0  0  0  0  0  0  0
   -1.2800   -1.1940   -0.0406 N   0  0  0  0  0  0  0  0  0  0  0  0
   -2.3206   -2.0646    0.3788 C   0  0  0  0  0  0  0  0  0  0  0  0
   -3.4552   -1.3751    1.0849 C   0  0  0  0  0  0  0  0  0  0  0  0
   -3.5648    0.0493    0.6698 C   0  0  0  0  0  0  0  0  0  0  0  0
   -4.8037    0.6367    0.4744 C   0  0  0  0  0  0  0  0  0  0  0  0
   -4.9046    1.9471    0.0931 C   0  0  0  0  0  0  0  0  0  0  0  0
   -3.7612    2.6879   -0.0978 C   0  0  0  0  0  0  0  0  0  0  0  0
   -2.5085    2.0925    0.1002 C   0  0  0  0  0  0  0  0  0  0  0  0
   -2.4459    0.7874    0.4793 C   0  0  0  0  0  0  0  0  0  0  0  0
   -1.0243    0.1232    0.7233 C   0  0  2  0  0  0  0  0  0  0  0  0
   -0.2716    0.9143   -0.5093 C   0  0  0  0  0  0  0  0  0  0  0  0
  1  2  2  0
  2  3  1  0
  3  4  1  0
  4  5  1  0
  5  6  1  0
  6  7  1  0
  7  8  1  0
  2  9  1  0
  9 10  1  0
 10 11  1  0
 11 12  2  0
 11 13  1  0
 13 14  1  0
 14 15  1  0
 15 16  1  0
 16 17  2  0
 17 18  1  0
 18 19  2  0
 19 20  1  0
 20 21  2  0
 21 22  1  0
 22 23  1  6
  8  3  1  0
 23  9  1  0
 22 13  1  0
 21 16  1  0
M  END
>  <zinc_id>  (1) 
ZINC000000000655

>  <smiles>  (1) 
O=C(C1CCCCC1)N1CC(=O)N2CCc3ccccc3[C@@H]2C1

$$$$
