
     RDKit          3D

 26 28  0  0  0  0  0  0  0  0999 V2000
    5.7965    3.2391   -0.3951 Cl  0  0  0  0  0  0  0  0  0  0  0  0
    4.6257    1.9662   -0.0624 C   0  0  0  0  0  0  0  0  0  0  0  0
    3.5180    2.1691    0.7301 C   0  0  0  0  0  0  0  0  0  0  0  0
    2.6345    1.1529    0.9622 C   0  0  0  0  0  0  0  0  0  0  0  0
    2.8045   -0.1077    0.4231 C   0  0  0  0  0  0  0  0  0  0  0  0
    1.8824   -1.2309    0.6450 C   0  0  0  0  0  0  0  0  0  0  0  0
    0.7844   -0.9027    1.4725 O   0  0  0  0  0  0  0  0  0  0  0  0
   -0.0489    0.1093    1.0312 N   0  0  0  0  0  0  0  0  0  0  0  0
   -1.1423   -0.2757    0.3106 C   0  0  0  0  0  0  0  0  0  0  0  0
   -1.3278   -1.5544    0.0883 C   0  0  0  0  0  0  0  0  0  0  0  0
   -1.5113   -2.8188   -0.1316 N   0  0  0  0  0  0  0  0  0  0  0  0
   -2.5464   -3.6294    0.2927 C   0  0  0  0  0  0  0  0  0  0  0  0
   -2.3538   -4.8876   -0.1660 C   0  0  0  0  0  0  0  0  0  0  0  0
   -1.2190   -4.9012   -0.8742 N   0  0  0  0  0  0  0  0  0  0  0  0
   -0.7181   -3.7029   -0.8621 C   0  0  0  0  0  0  0  0  0  0  0  0
   -1.9394    0.9361   -0.0258 C   0  0  0  0  0  0  0  0  0  0  0  0
   -1.5993    2.1790    0.4670 C   0  0  0  0  0  0  0  0  0  0  0  0
   -2.3059    3.3366    0.2295 C   0  0  0  0  0  0  0  0  0  0  0  0
   -3.4206    3.2781   -0.5414 C   0  0  0  0  0  0  0  0  0  0  0  0
   -4.3108    4.7498   -0.8371 Cl  0  0  0  0  0  0  0  0  0  0  0  0
   -3.7997    2.0670   -1.0549 C   0  0  0  0  0  0  0  0  0  0  0  0
   -3.0701    0.8903   -0.8066 C   0  0  0  0  0  0  0  0  0  0  0  0
   -3.6159   -0.5918   -1.5447 Cl  0  0  0  0  0  0  0  0  0  0  0  0
    3.9127   -0.3064   -0.3684 C   0  0  0  0  0  0  0  0  0  0  0  0
    4.1563   -1.8937   -1.0668 Cl  0  0  0  0  0  0  0  0  0  0  0  0
    4.8143    0.7298   -0.6055 C   0  0  0  0  0  0  0  0  0  0  0  0
  1  2  1  0
  2  3  2  0
  3  4  1  0
  4  5  2  0
  5  6  1  0
  6  7  1  0
  7  8  1  0
  8  9  2  0
  9 10  1  0
 10 11  1  0
 11 12  1  0
 12 13  2  0
 13 14  1  0
 14 15  2  0
  9 16  1  0
 16 17  2  0
 17 18  1  0
 18 19  2  0
 19 20  1  0
 19 21  1  0
 21 22  2  0
 22 23  1  0
  5 24  1  0
 24 25  1  0
 24 26  2  0
 26  2  1  0
 15 11  1  0
 22 16  1  0
M  END
>  <zinc_id>  (1) 
ZINC000003873295

>  <smiles>  (1) 
Clc1ccc(CO/N=C(\Cn2ccnc2)c2ccc(Cl)cc2Cl)c(Cl)c1

$$$$
