
     RDKit          3D

 28 30  0  0  0  0  0  0  0  0999 V2000
    3.0283   -2.6578   -1.2869 C   0  0  0  0  0  0  0  0  0  0  0  0
    3.8291   -1.5658   -0.6697 C   0  0  0  0  0  0  0  0  0  0  0  0
    5.1650   -1.4276   -0.9989 C   0  0  0  0  0  0  0  0  0  0  0  0
    5.9358   -0.4307   -0.4249 C   0  0  0  0  0  0  0  0  0  0  0  0
    7.3078   -0.3463   -0.8115 C   0  0  0  0  0  0  0  0  0  0  0  0
    8.4029   -0.2775   -1.1092 N   0  0  0  0  0  0  0  0  0  0  0  0
    5.3880    0.4571    0.4973 C   0  0  0  0  0  0  0  0  0  0  0  0
    4.0677    0.3227    0.8246 C   0  0  0  0  0  0  0  0  0  0  0  0
    3.4364    1.2268    1.8202 C   0  0  0  0  0  0  0  0  0  0  0  0
    3.2922   -0.6662    0.2574 C   0  0  0  0  0  0  0  0  0  0  0  0
    2.0003   -0.7866    0.5845 O   0  0  0  0  0  0  0  0  0  0  0  0
    0.8384   -0.3014    0.1237 C   0  0  0  0  0  0  0  0  0  0  0  0
   -0.2953   -0.6835    0.7653 N   0  0  0  0  0  0  0  0  0  0  0  0
   -1.4967   -0.2708    0.4023 C   0  0  0  0  0  0  0  0  0  0  0  0
   -2.6467   -0.7083    1.1168 N   0  0  0  0  0  0  0  0  0  0  0  0
   -3.9436   -0.2732    0.7382 C   0  0  0  0  0  0  0  0  0  0  0  0
   -5.0459   -0.7220    1.4604 C   0  0  0  0  0  0  0  0  0  0  0  0
   -6.3221   -0.3212    1.1228 C   0  0  0  0  0  0  0  0  0  0  0  0
   -6.5674    0.5326    0.0672 C   0  0  0  0  0  0  0  0  0  0  0  0
   -7.9075    0.9355   -0.2643 C   0  0  0  0  0  0  0  0  0  0  0  0
   -8.9984    1.2534   -0.5187 N   0  0  0  0  0  0  0  0  0  0  0  0
   -5.4780    0.9799   -0.6513 C   0  0  0  0  0  0  0  0  0  0  0  0
   -4.2001    0.5788   -0.3134 C   0  0  0  0  0  0  0  0  0  0  0  0
   -1.5769    0.5602   -0.6469 N   0  0  0  0  0  0  0  0  0  0  0  0
   -0.5114    0.9864   -1.3355 C   0  0  0  0  0  0  0  0  0  0  0  0
   -0.6677    1.8772   -2.4506 N   0  0  0  0  0  0  0  0  0  0  0  0
    0.7438    0.5457   -0.9441 C   0  0  0  0  0  0  0  0  0  0  0  0
    2.2219    1.1824   -1.9599 Br  0  0  0  0  0  0  0  0  0  0  0  0
  1  2  1  0
  2  3  2  0
  3  4  1  0
  4  5  1  0
  5  6  3  0
  4  7  2  0
  7  8  1  0
  8  9  1  0
  8 10  2  0
 10 11  1  0
 11 12  1  0
 12 13  2  0
 13 14  1  0
 14 15  1  0
 15 16  1  0
 16 17  2  0
 17 18  1  0
 18 19  2  0
 19 20  1  0
 20 21  3  0
 19 22  1  0
 22 23  2  0
 14 24  2  0
 24 25  1  0
 25 26  1  0
 25 27  2  0
 27 28  1  0
 10  2  1  0
 27 12  1  0
 23 16  1  0
M  END
>  <zinc_id>  (1) 
ZINC000000602632

>  <smiles>  (1) 
Cc1cc(C#N)cc(C)c1Oc1nc(Nc2ccc(C#N)cc2)nc(N)c1Br

$$$$
