
     RDKit          3D

 21 24  0  0  0  0  0  0  0  0999 V2000
   -1.5637   -3.3890   -0.7403 N   0  0  0  0  0  0  0  0  0  0  0  0
   -1.4091   -2.1389   -0.3494 C   0  0  0  0  0  0  0  0  0  0  0  0
   -0.2286   -1.6625    0.0812 N   0  0  0  0  0  0  0  0  0  0  0  0
   -0.0218   -0.3932    0.4907 C   0  0  0  0  0  0  0  0  0  0  0  0
   -1.1529    0.4440    0.4426 C   0  0  0  0  0  0  0  0  0  0  0  0
   -0.7281    1.6378    0.8854 N   0  0  0  0  0  0  0  0  0  0  0  0
    0.5835    1.5266    1.1834 C   0  0  0  0  0  0  0  0  0  0  0  0
    1.0132    0.3113    0.9492 N   0  0  0  0  0  0  0  0  0  0  0  0
    2.3832   -0.3080    1.1272 C   0  0  1  0  0  0  0  0  0  0  0  0
    2.5593   -0.7880   -0.3853 C   0  0  0  0  0  0  0  0  0  0  0  0
    3.7727   -0.5626   -0.7333 C   0  0  0  0  0  0  0  0  0  0  0  0
    4.5356    0.0881    0.4997 C   0  0  1  0  0  0  0  0  0  0  0  0
    5.2715    1.2256   -0.3977 C   0  0  0  0  0  0  0  0  0  0  0  0
    5.9963    0.3983   -1.2797 O   0  0  0  0  0  0  0  0  0  0  0  0
    3.2475    1.0448    0.8425 C   0  0  0  0  0  0  0  0  0  0  0  0
   -2.3809   -0.0109    0.0061 C   0  0  0  0  0  0  0  0  0  0  0  0
   -3.4546    0.9015   -0.0065 N   0  0  0  0  0  0  0  0  0  0  0  0
   -4.7916    0.5177   -0.4503 C   0  0  0  0  0  0  0  0  0  0  0  0
   -5.8816    1.5049   -0.4460 C   0  0  0  0  0  0  0  0  0  0  0  0
   -5.2862    0.9388   -1.7714 C   0  0  0  0  0  0  0  0  0  0  0  0
   -2.4638   -1.2865   -0.3741 N   0  0  0  0  0  0  0  0  0  0  0  0
  1  2  1  0
  2  3  2  0
  3  4  1  0
  4  5  2  0
  5  6  1  0
  6  7  2  0
  7  8  1  0
  9  8  1  6
  9 10  1  0
 10 11  2  0
 11 12  1  0
 12 13  1  6
 13 14  1  0
 12 15  1  0
  5 16  1  0
 16 17  1  0
 17 18  1  0
 18 19  1  0
 19 20  1  0
 16 21  2  0
 21  2  1  0
  8  4  1  0
 15  9  1  0
 20 18  1  0
M  END
>  <zinc_id>  (1) 
ZINC000002015928

>  <smiles>  (1) 
Nc1nc(NC2CC2)c2ncn([C@H]3C=C[C@@H](CO)C3)c2n1

$$$$
