
     RDKit          3D

 35 38  0  0  0  0  0  0  0  0999 V2000
    3.6944    3.0896    3.5794 C   0  0  0  0  0  0  0  0  0  0  0  0
    2.7648    2.7544    2.8119 C   0  0  0  0  0  0  0  0  0  0  0  0
    3.1205    1.8507    1.7959 O   0  0  0  0  0  0  0  0  0  0  0  0
    2.2134    1.3967    0.8857 C   0  0  0  0  0  0  0  0  0  0  0  0
    1.0443    1.7707    0.9303 O   0  0  0  0  0  0  0  0  0  0  0  0
    2.2521    0.5658   -0.1557 O   0  0  0  0  0  0  0  0  0  0  0  0
    1.4977    0.0438   -1.0772 C   0  0  2  0  0  0  0  0  0  0  0  0
    2.4932   -0.7280   -1.8706 C   0  0  0  0  0  0  0  0  0  0  0  0
    2.1857   -1.2896   -2.9346 O   0  0  0  0  0  0  0  0  0  0  0  0
    3.8883   -0.9022   -1.4954 C   0  0  0  0  0  0  0  0  0  0  0  0
    4.3883   -0.4002   -0.3249 O   0  0  0  0  0  0  0  0  0  0  0  0
    5.6979   -0.5115    0.1220 C   0  0  0  0  0  0  0  0  0  0  0  0
    6.4847   -1.1445   -0.6537 O   0  0  0  0  0  0  0  0  0  0  0  0
    6.1903    0.0352    1.3767 C   0  0  0  0  0  0  0  0  0  0  0  0
    7.1211    1.2123    1.2145 C   0  0  0  0  0  0  0  0  0  0  0  0
    1.0375    0.9427   -2.2491 C   0  0  0  0  0  0  0  0  0  0  0  0
   -0.2763    0.3373   -2.7223 C   0  0  0  0  0  0  0  0  0  0  0  0
   -0.7406    0.4997   -1.1783 C   0  0  1  0  0  0  0  0  0  0  0  0
   -2.0684   -0.5708   -1.2792 C   0  0  2  0  0  0  0  0  0  0  0  0
   -3.0181    0.5188   -1.9130 C   0  0  0  0  0  0  0  0  0  0  0  0
   -4.3006   -0.3732   -1.8793 C   0  0  0  0  0  0  0  0  0  0  0  0
   -4.6823   -0.1932   -0.4002 C   0  0  0  0  0  0  0  0  0  0  0  0
   -5.7306    0.3992   -0.0602 C   0  0  0  0  0  0  0  0  0  0  0  0
   -6.1853    0.6431    1.3242 C   0  0  0  0  0  0  0  0  0  0  0  0
   -7.2346    1.2321    1.6397 O   0  0  0  0  0  0  0  0  0  0  0  0
   -5.2333    0.0973    2.2790 C   0  0  0  0  0  0  0  0  0  0  0  0
   -4.1560   -0.5208    1.8996 C   0  0  0  0  0  0  0  0  0  0  0  0
   -3.7689   -0.7583    0.5442 C   0  0  1  0  0  0  0  0  0  0  0  0
   -3.7652   -2.2909    0.4487 C   0  0  0  0  0  0  0  0  0  0  0  0
   -2.3061   -0.2137    0.3130 C   0  0  1  0  0  0  0  0  0  0  0  0
   -1.4498   -1.4735    1.0225 C   0  0  1  0  0  0  0  0  0  0  0  0
   -1.5218   -2.5346   -0.0278 O   0  0  0  0  0  0  0  0  0  0  0  0
    0.0502   -0.9834    0.5767 C   0  0  0  0  0  0  0  0  0  0  0  0
    0.2372   -0.6961   -0.7655 C   0  0  2  0  0  0  0  0  0  0  0  0
    0.0763   -1.8052   -1.7769 C   0  0  0  0  0  0  0  0  0  0  0  0
  1  2  1  0
  2  3  1  0
  3  4  1  0
  4  5  2  0
  4  6  1  0
  7  6  1  1
  7  8  1  0
  8  9  2  0
  8 10  1  0
 10 11  1  0
 11 12  1  0
 12 13  2  0
 12 14  1  0
 14 15  1  0
  7 16  1  0
 16 17  1  0
 18 17  1  6
 18 19  1  0
 19 20  1  6
 20 21  1  0
 21 22  1  0
 22 23  2  0
 23 24  1  0
 24 25  2  0
 24 26  1  0
 26 27  2  0
 27 28  1  0
 28 29  1  6
 28 30  1  0
 30 31  1  1
 31 32  1  6
 31 33  1  0
 33 34  1  0
 34 35  1  6
 34  7  1  0
 34 18  1  0
 30 19  1  0
 28 22  1  0
M  END
>  <zinc_id>  (1) 
ZINC000003938652

>  <smiles>  (1) 
CCOC(=O)O[C@]1(C(=O)COC(=O)CC)CC[C@H]2[C@@H]3CCC4=CC(=O)C=C[C@]4(C)[C@H]3[C@@H](O)C[C@@]21C

$$$$
