
     RDKit          3D

 32 35  0  0  0  0  0  0  0  0999 V2000
    5.9970    1.7417   -2.2016 C   0  0  0  0  0  0  0  0  0  0  0  0
    6.5597    1.3585   -1.2767 C   0  0  0  0  0  0  0  0  0  0  0  0
    7.9034    1.6180   -1.0517 C   0  0  0  0  0  0  0  0  0  0  0  0
    8.5922    1.1556    0.0692 C   0  0  0  0  0  0  0  0  0  0  0  0
    7.9509    0.3928    1.0410 C   0  0  0  0  0  0  0  0  0  0  0  0
    6.6172    0.1273    0.8311 C   0  0  0  0  0  0  0  0  0  0  0  0
    5.9575    0.6091   -0.3082 C   0  0  0  0  0  0  0  0  0  0  0  0
    4.5318    0.2678   -0.4354 C   0  0  0  0  0  0  0  0  0  0  0  0
    4.0091    0.0090   -1.5341 O   0  0  0  0  0  0  0  0  0  0  0  0
    3.6634    0.2131    0.6920 N   0  0  0  0  0  0  0  0  0  0  0  0
    2.2853   -0.1177    0.5622 C   0  0  0  0  0  0  0  0  0  0  0  0
    1.6780   -0.4076   -0.6331 C   0  0  0  0  0  0  0  0  0  0  0  0
    0.3396   -0.7231   -0.7138 C   0  0  0  0  0  0  0  0  0  0  0  0
   -0.4163   -0.7491    0.4422 C   0  0  0  0  0  0  0  0  0  0  0  0
   -1.8139   -1.0726    0.4051 C   0  0  0  0  0  0  0  0  0  0  0  0
   -2.1533   -2.2995    0.5277 O   0  0  0  0  0  0  0  0  0  0  0  0
   -2.7712   -0.0440    0.2365 N   0  0  0  0  0  0  0  0  0  0  0  0
   -2.2346    1.2623    0.1180 C   0  0  0  0  0  0  0  0  0  0  0  0
   -3.0688    2.3106   -0.4657 C   0  0  0  0  0  0  0  0  0  0  0  0
   -4.4516    2.3177   -0.0779 C   0  0  0  0  0  0  0  0  0  0  0  0
   -5.3872    1.4291   -1.0927 C   0  0  1  0  0  0  0  0  0  0  0  0
   -4.3526    1.1326   -2.1626 O   0  0  0  0  0  0  0  0  0  0  0  0
   -5.2214    0.0486   -0.3073 C   0  0  0  0  0  0  0  0  0  0  0  0
   -6.4575   -0.5501   -0.2303 C   0  0  0  0  0  0  0  0  0  0  0  0
   -6.6452   -1.7729    0.3957 C   0  0  0  0  0  0  0  0  0  0  0  0
   -8.2108   -2.5498    0.5033 Cl  0  0  0  0  0  0  0  0  0  0  0  0
   -5.5010   -2.3399    0.9329 C   0  0  0  0  0  0  0  0  0  0  0  0
   -4.2620   -1.7398    0.8558 C   0  0  0  0  0  0  0  0  0  0  0  0
   -4.1298   -0.5143    0.2172 C   0  0  0  0  0  0  0  0  0  0  0  0
    0.1574   -0.4634    1.6649 C   0  0  0  0  0  0  0  0  0  0  0  0
   -0.6755   -0.4985    2.8882 C   0  0  0  0  0  0  0  0  0  0  0  0
    1.5102   -0.1510    1.6952 C   0  0  0  0  0  0  0  0  0  0  0  0
  1  2  1  0
  2  3  2  0
  3  4  1  0
  4  5  2  0
  5  6  1  0
  6  7  2  0
  7  8  1  0
  8  9  2  0
  8 10  1  0
 10 11  1  0
 11 12  2  0
 12 13  1  0
 13 14  2  0
 14 15  1  0
 15 16  2  0
 15 17  1  0
 17 18  1  0
 18 19  1  0
 19 20  1  0
 20 21  1  0
 21 22  1  6
 21 23  1  0
 23 24  2  0
 24 25  1  0
 25 26  1  0
 25 27  2  0
 27 28  1  0
 28 29  2  0
 14 30  1  0
 30 31  1  0
 30 32  2  0
  7  2  1  0
 32 11  1  0
 29 17  1  0
 29 23  1  0
M  END
>  <zinc_id>  (1) 
ZINC000000538658

>  <smiles>  (1) 
Cc1ccccc1C(=O)Nc1ccc(C(=O)N2CCC[C@@H](O)c3cc(Cl)ccc32)c(C)c1

$$$$
