
     RDKit          3D

 28 30  0  0  0  0  0  0  0  0999 V2000
    6.7010    1.5987    1.3300 C   0  0  0  0  0  0  0  0  0  0  0  0
    7.1263    0.9529    0.6184 C   0  0  0  0  0  0  0  0  0  0  0  0
    6.5584   -0.1169   -0.2569 C   0  0  0  0  0  0  0  0  0  0  0  0
    5.9636   -1.1283    0.6294 C   0  0  0  0  0  0  0  0  0  0  0  0
    5.3170   -2.3190    0.0871 C   0  0  0  0  0  0  0  0  0  0  0  0
    4.0611   -1.9269   -0.8637 C   0  0  2  0  0  0  0  0  0  0  0  0
    4.8986   -1.1363   -1.8296 O   0  0  0  0  0  0  0  0  0  0  0  0
    3.6231   -0.6489    0.0545 C   0  0  0  0  0  0  0  0  0  0  0  0
    2.4376   -0.0245   -0.5644 C   0  0  0  0  0  0  0  0  0  0  0  0
    1.3588   -1.2387   -0.5416 C   0  0  1  0  0  0  0  0  0  0  0  0
    1.3735   -1.4150    1.1246 C   0  0  2  0  0  0  0  0  0  0  0  0
    1.2291   -2.9121    1.0060 O   0  0  0  0  0  0  0  0  0  0  0  0
   -0.2081   -1.1851    1.3842 C   0  0  0  0  0  0  0  0  0  0  0  0
    0.0419    0.3030    0.8621 C   0  0  2  0  0  0  0  0  0  0  0  0
   -1.4358    0.8311    0.9626 C   0  0  0  0  0  0  0  0  0  0  0  0
   -2.3453    0.4300   -0.0888 C   0  0  0  0  0  0  0  0  0  0  0  0
   -2.1538   -0.6116   -0.9316 C   0  0  0  0  0  0  0  0  0  0  0  0
   -3.0078   -1.0002   -1.9194 C   0  0  0  0  0  0  0  0  0  0  0  0
   -4.2028   -0.2882   -2.1184 C   0  0  0  0  0  0  0  0  0  0  0  0
   -4.3705    0.7569   -1.2555 C   0  0  0  0  0  0  0  0  0  0  0  0
   -3.5330    1.1580   -0.2676 C   0  0  0  0  0  0  0  0  0  0  0  0
   -3.7841    2.2291    0.5544 O   0  0  0  0  0  0  0  0  0  0  0  0
   -4.9496    2.9842    0.4340 C   0  0  0  0  0  0  0  0  0  0  0  0
   -6.2047    2.3113    0.6820 C   0  0  0  0  0  0  0  0  0  0  0  0
   -6.2014    1.1180    1.0780 O   0  0  0  0  0  0  0  0  0  0  0  0
   -7.4767    2.8421    0.5307 O   0  0  0  0  0  0  0  0  0  0  0  0
   -0.9340   -1.3891   -0.7962 C   0  0  0  0  0  0  0  0  0  0  0  0
    0.1178   -0.1743   -0.7080 C   0  0  2  0  0  0  0  0  0  0  0  0
  1  2  1  0
  2  3  1  0
  3  4  1  0
  4  5  1  0
  5  6  1  0
  6  7  1  6
  6  8  1  0
  8  9  1  0
 10  9  1  1
 10 11  1  0
 11 12  1  6
 11 13  1  0
 14 13  1  1
 14 15  1  0
 15 16  1  0
 16 17  2  0
 17 18  1  0
 18 19  2  0
 19 20  1  0
 20 21  2  0
 21 22  1  0
 22 23  1  0
 23 24  1  0
 24 25  2  0
 24 26  1  0
 17 27  1  0
 28 27  1  1
 28 10  1  0
 28 14  1  0
 21 16  1  0
M  END
>  <zinc_id>  (1) 
ZINC000003800475

>  <smiles>  (1) 
CCCCC[C@H](O)CC[C@@H]1[C@H]2Cc3cccc(OCC(=O)O)c3C[C@H]2C[C@H]1O

$$$$
