
     RDKit          3D

 14 14  0  0  0  0  0  0  0  0999 V2000
   -3.1106   -0.9270   -1.1528 C   0  0  0  0  0  0  0  0  0  0  0  0
   -1.9861   -0.2757   -0.6336 C   0  0  2  0  0  0  0  0  0  0  0  0
   -2.0375    1.1037   -1.0843 N   0  0  0  0  0  0  0  0  0  0  0  0
   -0.7500   -0.9885   -1.1353 C   0  0  0  0  0  0  0  0  0  0  0  0
    0.4954   -0.3798   -0.6448 C   0  0  0  0  0  0  0  0  0  0  0  0
    1.0302   -0.8277    0.5380 C   0  0  0  0  0  0  0  0  0  0  0  0
    2.1945   -0.3052    1.0605 C   0  0  0  0  0  0  0  0  0  0  0  0
    2.8426    0.6972    0.3762 C   0  0  0  0  0  0  0  0  0  0  0  0
    4.0167    1.2577    0.8570 O   0  0  0  0  0  0  0  0  0  0  0  0
    2.3220    1.1484   -0.7961 C   0  0  0  0  0  0  0  0  0  0  0  0
    1.1724    0.6254   -1.3022 C   0  0  0  0  0  0  0  0  0  0  0  0
   -2.0464   -0.3284    0.8495 C   0  0  0  0  0  0  0  0  0  0  0  0
   -2.1303    0.7285    1.5546 O   0  0  0  0  0  0  0  0  0  0  0  0
   -2.0132   -1.5287    1.5133 O   0  0  0  0  0  0  0  0  0  0  0  0
  2  1  1  6
  2  3  1  0
  2  4  1  0
  4  5  1  0
  5  6  2  0
  6  7  1  0
  7  8  2  0
  8  9  1  0
  8 10  1  0
 10 11  2  0
  2 12  1  0
 12 13  2  0
 12 14  1  0
 11  5  1  0
M  END
>  <zinc_id>  (1) 
ZINC000000000693

>  <smiles>  (1) 
C[C@](N)(Cc1ccc(O)cc1)C(=O)O

$$$$
