
     RDKit          3D

 30 34  0  0  0  0  0  0  0  0999 V2000
    2.1642   -2.1763   -2.7345 C   0  0  0  0  0  0  0  0  0  0  0  0
    3.0764   -1.4373   -2.0045 O   0  0  0  0  0  0  0  0  0  0  0  0
    2.6722   -0.6403   -0.9639 C   0  0  0  0  0  0  0  0  0  0  0  0
    1.3102   -0.5408   -0.5945 C   0  0  0  0  0  0  0  0  0  0  0  0
    0.9490    0.2307    0.4084 C   0  0  0  0  0  0  0  0  0  0  0  0
   -0.3928    0.5333    1.0605 C   0  0  2  0  0  0  0  0  0  0  0  0
   -1.4530   -0.4378    0.7046 C   0  0  0  0  0  0  0  0  0  0  0  0
   -1.1565   -1.7097    0.4151 C   0  0  0  0  0  0  0  0  0  0  0  0
   -2.1310   -2.6821    0.0823 C   0  0  0  0  0  0  0  0  0  0  0  0
   -3.4260   -2.2206    0.0772 C   0  0  0  0  0  0  0  0  0  0  0  0
   -3.7502   -0.9205    0.3709 C   0  0  0  0  0  0  0  0  0  0  0  0
   -2.7515   -0.0543    0.6792 C   0  0  0  0  0  0  0  0  0  0  0  0
   -3.0818    1.4744    1.0201 C   0  0  2  0  0  0  0  0  0  0  0  0
   -4.3492    1.5729    0.2185 O   0  0  0  0  0  0  0  0  0  0  0  0
   -2.1309    1.8356   -0.3616 C   0  0  1  0  0  0  0  0  0  0  0  0
   -2.2455    3.4456   -0.3077 C   0  0  0  0  0  0  0  0  0  0  0  0
   -0.9565    3.6303   -0.8769 O   0  0  0  0  0  0  0  0  0  0  0  0
   -0.0908    2.5078   -0.6403 C   0  0  0  0  0  0  0  0  0  0  0  0
    0.7708    2.3591   -1.4255 O   0  0  0  0  0  0  0  0  0  0  0  0
   -0.8039    2.0438    0.6289 C   0  0  2  0  0  0  0  0  0  0  0  0
   -4.2523   -3.3042   -0.2692 O   0  0  0  0  0  0  0  0  0  0  0  0
   -3.4792   -4.5016   -0.2713 C   0  0  0  0  0  0  0  0  0  0  0  0
   -2.1250   -4.0302   -0.2532 O   0  0  0  0  0  0  0  0  0  0  0  0
    1.9273    0.9349    1.0837 C   0  0  0  0  0  0  0  0  0  0  0  0
    3.2768    0.8889    0.7810 C   0  0  0  0  0  0  0  0  0  0  0  0
    4.2195    1.6221    1.4979 O   0  0  0  0  0  0  0  0  0  0  0  0
    3.7212    2.4225    2.5600 C   0  0  0  0  0  0  0  0  0  0  0  0
    3.6334    0.0700   -0.2776 C   0  0  0  0  0  0  0  0  0  0  0  0
    4.9862    0.0136   -0.5928 O   0  0  0  0  0  0  0  0  0  0  0  0
    5.8690   -0.9296   -0.0147 C   0  0  0  0  0  0  0  0  0  0  0  0
  1  2  1  0
  2  3  1  0
  3  4  2  0
  4  5  1  0
  6  5  1  6
  6  7  1  0
  7  8  2  0
  8  9  1  0
  9 10  2  0
 10 11  1  0
 11 12  2  0
 12 13  1  0
 13 14  1  6
 13 15  1  0
 15 16  1  1
 16 17  1  0
 17 18  1  0
 18 19  2  0
 20 18  1  6
 10 21  1  0
 21 22  1  0
 22 23  1  0
  5 24  2  0
 24 25  1  0
 25 26  1  0
 26 27  1  0
 25 28  2  0
 28 29  1  0
 29 30  1  0
 28  3  1  0
 20  6  1  0
 12  7  1  0
 20 15  1  0
 23  9  1  0
M  END
>  <zinc_id>  (1) 
ZINC000003861806

>  <smiles>  (1) 
COc1cc([C@@H]2c3cc4c(cc3[C@H](O)[C@H]3COC(=O)[C@H]23)OCO4)cc(OC)c1OC

$$$$
