
     RDKit          3D

 19 19  0  0  0  0  0  0  0  0999 V2000
    4.7272    2.2685    1.1800 C   0  0  0  0  0  0  0  0  0  0  0  0
    4.4742    2.3911    0.4980 C   0  0  0  0  0  0  0  0  0  0  0  0
    4.0509    1.2690   -0.4238 C   0  0  0  0  0  0  0  0  0  0  0  0
    2.9860    0.6048    0.2706 N   0  0  0  0  0  0  0  0  0  0  0  0
    2.4751   -0.5465   -0.6265 C   0  0  2  0  0  0  0  0  0  0  0  0
    1.9785    0.3573   -1.8669 C   0  0  0  0  0  0  0  0  0  0  0  0
    1.0655   -0.6776    0.0677 C   0  0  0  0  0  0  0  0  0  0  0  0
    0.9406   -0.3395    1.2451 O   0  0  0  0  0  0  0  0  0  0  0  0
   -0.0169   -1.1713   -0.6425 N   0  0  0  0  0  0  0  0  0  0  0  0
   -1.3548   -1.3589   -0.0617 C   0  0  0  0  0  0  0  0  0  0  0  0
   -1.7436   -2.5763    0.4321 C   0  0  0  0  0  0  0  0  0  0  0  0
   -0.8292   -3.7978    0.4155 C   0  0  0  0  0  0  0  0  0  0  0  0
   -2.9882   -2.6712    0.9486 C   0  0  0  0  0  0  0  0  0  0  0  0
   -3.6253   -1.1145    0.7652 S   0  0  0  0  0  0  0  0  0  0  0  0
   -2.2699   -0.3567    0.0199 C   0  0  0  0  0  0  0  0  0  0  0  0
   -2.1597    1.0591   -0.4041 C   0  0  0  0  0  0  0  0  0  0  0  0
   -1.1891    1.5802   -0.9187 O   0  0  0  0  0  0  0  0  0  0  0  0
   -3.2935    1.8698   -0.1840 O   0  0  0  0  0  0  0  0  0  0  0  0
   -3.2276    3.2104   -0.5691 C   0  0  0  0  0  0  0  0  0  0  0  0
  1  2  1  0
  2  3  1  0
  3  4  1  0
  4  5  1  0
  5  6  1  6
  5  7  1  0
  7  8  2  0
  7  9  1  0
  9 10  1  0
 10 11  1  0
 11 12  1  0
 11 13  2  0
 13 14  1  0
 14 15  1  0
 15 16  1  0
 16 17  2  0
 16 18  1  0
 18 19  1  0
 15 10  2  0
M  END
>  <zinc_id>  (1) 
ZINC000002019954

>  <smiles>  (1) 
CCCN[C@H](C)C(=O)Nc1c(C)csc1C(=O)OC

$$$$
