
     RDKit          3D

 22 23  0  0  0  0  0  0  0  0999 V2000
   -7.0078    1.4579   -0.9468 C   0  0  0  0  0  0  0  0  0  0  0  0
   -7.1788    0.4419    0.1624 C   0  0  0  0  0  0  0  0  0  0  0  0
   -6.2288   -0.5915   -0.0202 O   0  0  0  0  0  0  0  0  0  0  0  0
   -4.8590   -0.3489   -0.0235 C   0  0  0  0  0  0  0  0  0  0  0  0
   -4.4657    0.8447    0.1443 O   0  0  0  0  0  0  0  0  0  0  0  0
   -3.8890   -1.3447   -0.2010 N   0  0  0  0  0  0  0  0  0  0  0  0
   -2.4849   -1.0891   -0.2033 C   0  0  0  0  0  0  0  0  0  0  0  0
   -2.0709    0.2133   -0.0198 C   0  0  0  0  0  0  0  0  0  0  0  0
   -0.7003    0.4941   -0.0173 C   0  0  0  0  0  0  0  0  0  0  0  0
    0.2376   -0.5039   -0.1943 C   0  0  0  0  0  0  0  0  0  0  0  0
    1.6262   -0.2906   -0.2025 N   0  0  0  0  0  0  0  0  0  0  0  0
    2.2561    0.9960   -0.0276 C   0  0  0  0  0  0  0  0  0  0  0  0
    3.7187    0.9363   -0.0789 C   0  0  0  0  0  0  0  0  0  0  0  0
    4.4574   -0.2107   -0.2724 C   0  0  0  0  0  0  0  0  0  0  0  0
    5.8485   -0.1474   -0.3032 C   0  0  0  0  0  0  0  0  0  0  0  0
    6.5168    1.0494   -0.1429 C   0  0  0  0  0  0  0  0  0  0  0  0
    7.8903    1.0750   -0.1788 F   0  0  0  0  0  0  0  0  0  0  0  0
    5.7788    2.2015    0.0514 C   0  0  0  0  0  0  0  0  0  0  0  0
    4.4208    2.1141    0.0776 C   0  0  0  0  0  0  0  0  0  0  0  0
   -0.2253   -1.7917   -0.3742 C   0  0  0  0  0  0  0  0  0  0  0  0
   -1.5818   -2.0924   -0.3800 C   0  0  0  0  0  0  0  0  0  0  0  0
   -2.0590   -3.4134   -0.5645 N   0  0  0  0  0  0  0  0  0  0  0  0
  1  2  1  0
  2  3  1  0
  3  4  1  0
  4  5  2  0
  4  6  1  0
  6  7  1  0
  7  8  2  0
  8  9  1  0
  9 10  2  0
 10 11  1  0
 11 12  1  0
 12 13  1  0
 13 14  2  0
 14 15  1  0
 15 16  2  0
 16 17  1  0
 16 18  1  0
 18 19  2  0
 10 20  1  0
 20 21  2  0
 21 22  1  0
 21  7  1  0
 19 13  1  0
M  END
>  <zinc_id>  (1) 
ZINC000000016154

>  <smiles>  (1) 
CCOC(=O)Nc1ccc(NCc2ccc(F)cc2)cc1N

$$$$
