
     RDKit          3D

 30 34  0  0  0  0  0  0  0  0999 V2000
   -3.2774   -1.2479   -3.5327 C   0  0  0  0  0  0  0  0  0  0  0  0
   -3.8936   -0.9030   -2.2090 C   0  0  0  0  0  0  0  0  0  0  0  0
   -4.9971   -1.5167   -1.7448 N   0  0  0  0  0  0  0  0  0  0  0  0
   -5.5467   -1.1863   -0.5411 C   0  0  0  0  0  0  0  0  0  0  0  0
   -4.9837   -0.2383    0.1904 N   0  0  0  0  0  0  0  0  0  0  0  0
   -3.8731    0.4070   -0.2347 C   0  0  0  0  0  0  0  0  0  0  0  0
   -3.3465    1.3093    0.4741 O   0  0  0  0  0  0  0  0  0  0  0  0
   -3.3151    0.0762   -1.4491 C   0  0  0  0  0  0  0  0  0  0  0  0
   -2.0851    0.7699   -1.9300 C   0  0  0  0  0  0  0  0  0  0  0  0
   -0.9291   -0.1821   -1.6303 C   0  0  0  0  0  0  0  0  0  0  0  0
    0.2767    0.5110   -2.0969 N   0  0  0  0  0  0  0  0  0  0  0  0
    0.5060    1.6926   -1.2725 C   0  0  0  0  0  0  0  0  0  0  0  0
    1.0039    1.2493    0.1217 C   0  0  0  0  0  0  0  0  0  0  0  0
    2.3783    0.7440   -0.1344 C   0  0  0  0  0  0  0  0  0  0  0  0
    3.1927    0.4313    0.9980 C   0  0  0  0  0  0  0  0  0  0  0  0
    2.8753    0.3413    2.3228 N   0  0  0  0  0  0  0  0  0  0  0  0
    3.9219    0.0337    3.0157 O   0  0  0  0  0  0  0  0  0  0  0  0
    4.9772   -0.1025    2.2435 C   0  0  0  0  0  0  0  0  0  0  0  0
    6.3149   -0.4125    2.4092 C   0  0  0  0  0  0  0  0  0  0  0  0
    7.2095   -0.4792    1.3539 C   0  0  0  0  0  0  0  0  0  0  0  0
    8.5107   -0.7845    1.5700 F   0  0  0  0  0  0  0  0  0  0  0  0
    6.7612   -0.2310    0.0893 C   0  0  0  0  0  0  0  0  0  0  0  0
    5.4476    0.0747   -0.0975 C   0  0  0  0  0  0  0  0  0  0  0  0
    4.5469    0.1417    0.9710 C   0  0  0  0  0  0  0  0  0  0  0  0
    2.6627    0.2028   -1.4592 C   0  0  0  0  0  0  0  0  0  0  0  0
    1.4114   -0.3964   -2.0403 C   0  0  0  0  0  0  0  0  0  0  0  0
   -5.5000    0.1800    1.4935 C   0  0  0  0  0  0  0  0  0  0  0  0
   -6.1610   -1.0564    2.0948 C   0  0  0  0  0  0  0  0  0  0  0  0
   -7.3320   -1.3876    1.1555 C   0  0  0  0  0  0  0  0  0  0  0  0
   -6.7564   -1.9299   -0.1307 C   0  0  0  0  0  0  0  0  0  0  0  0
  1  2  1  0
  2  3  1  0
  3  4  2  0
  4  5  1  0
  5  6  1  0
  6  7  2  0
  6  8  1  0
  8  9  1  0
  9 10  1  0
 10 11  1  0
 11 12  1  0
 12 13  1  0
 13 14  1  0
 14 15  1  0
 15 16  2  0
 16 17  1  0
 17 18  1  0
 18 19  2  0
 19 20  1  0
 20 21  1  0
 20 22  2  0
 22 23  1  0
 23 24  2  0
 14 25  1  0
 25 26  1  0
  5 27  1  0
 27 28  1  0
 28 29  1  0
 29 30  1  0
  8  2  2  0
 26 11  1  0
 30  4  1  0
 24 15  1  0
 24 18  1  0
M  END
>  <zinc_id>  (1) 
ZINC000000538312

>  <smiles>  (1) 
Cc1nc2n(c(=O)c1CCN1CCC(c3noc4cc(F)ccc34)CC1)CCCC2

$$$$
