
     RDKit          3D

 13 13  0  0  0  0  0  0  0  0999 V2000
   -2.0056    0.2981    1.1909 C   0  0  0  0  0  0  0  0  0  0  0  0
   -2.1013    1.2971   -0.0729 C   0  0  2  0  0  0  0  0  0  0  0  0
   -3.6398    1.1270   -0.2326 N   0  0  0  0  0  0  0  0  0  0  0  0
   -1.7544    0.2361   -1.3574 C   0  0  2  0  0  0  0  0  0  0  0  0
   -2.4386   -1.0063   -0.8002 O   0  0  0  0  0  0  0  0  0  0  0  0
   -0.3022   -0.1417   -0.8611 C   0  0  0  0  0  0  0  0  0  0  0  0
    0.1892   -1.3694   -0.9121 C   0  0  0  0  0  0  0  0  0  0  0  0
    1.4509   -1.7129   -0.5071 C   0  0  0  0  0  0  0  0  0  0  0  0
    2.2406   -0.7065   -0.0204 C   0  0  0  0  0  0  0  0  0  0  0  0
    3.5283   -1.0698    0.3904 O   0  0  0  0  0  0  0  0  0  0  0  0
    1.7730    0.5915    0.0530 C   0  0  0  0  0  0  0  0  0  0  0  0
    2.6035    1.5551    0.5467 O   0  0  0  0  0  0  0  0  0  0  0  0
    0.4563    0.9015   -0.3789 C   0  0  0  0  0  0  0  0  0  0  0  0
  2  1  1  1
  2  3  1  0
  2  4  1  0
  4  5  1  1
  4  6  1  0
  6  7  2  0
  7  8  1  0
  8  9  2  0
  9 10  1  0
  9 11  1  0
 11 12  1  0
 11 13  2  0
 13  6  1  0
M  END
>  <zinc_id>  (1) 
ZINC000000034157

>  <smiles>  (1) 
C[C@H](N)[C@H](O)c1ccc(O)c(O)c1

$$$$
