
     RDKit          3D

 14 14  0  0  0  0  0  0  0  0999 V2000
    0.3208    0.2641    1.6039 O   0  0  0  0  0  0  0  0  0  0  0  0
    0.2852    0.4486    0.1917 P   0  0  2  0  0  0  0  0  0  0  0  0
    1.1502   -0.8537   -0.5782 N   0  0  0  0  0  0  0  0  0  0  0  0
    2.5183   -0.8398   -0.1231 C   0  0  0  0  0  0  0  0  0  0  0  0
    3.2999   -1.9679   -0.7693 C   0  0  0  0  0  0  0  0  0  0  0  0
    4.9831   -1.9165   -0.1966 Cl  0  0  0  0  0  0  0  0  0  0  0  0
    0.9386    1.9705   -0.2253 O   0  0  0  0  0  0  0  0  0  0  0  0
    0.0271    2.8997    0.3279 C   0  0  0  0  0  0  0  0  0  0  0  0
   -1.2232    2.8205   -0.4960 C   0  0  0  0  0  0  0  0  0  0  0  0
   -2.0644    1.6070   -0.2444 C   0  0  0  0  0  0  0  0  0  0  0  0
   -1.3638    0.3735   -0.3058 N   0  0  0  0  0  0  0  0  0  0  0  0
   -2.0430   -0.8253   -0.0600 C   0  0  0  0  0  0  0  0  0  0  0  0
   -3.0480   -1.2227   -1.1064 C   0  0  0  0  0  0  0  0  0  0  0  0
   -3.7809   -2.7581   -0.6045 Cl  0  0  0  0  0  0  0  0  0  0  0  0
  1  2  2  0
  2  3  1  6
  3  4  1  0
  4  5  1  0
  5  6  1  0
  2  7  1  0
  7  8  1  0
  8  9  1  0
  9 10  1  0
 10 11  1  0
 11 12  1  0
 12 13  1  0
 13 14  1  0
 11  2  1  0
M  END
>  <zinc_id>  (1) 
ZINC000001530660

>  <smiles>  (1) 
O=[P@]1(NCCCl)OCCCN1CCCl

$$$$
