
     RDKit          3D

 11 10  0  0  0  0  0  0  0  0999 V2000
    0.9904   -1.1473    1.4029 F   0  0  0  0  0  0  0  0  0  0  0  0
    1.1784   -0.4191    0.2525 C   0  0  0  0  0  0  0  0  0  0  0  0
    2.3177    0.3732    0.4766 F   0  0  0  0  0  0  0  0  0  0  0  0
    1.5090   -1.2290   -0.8281 F   0  0  0  0  0  0  0  0  0  0  0  0
    0.0791    0.5314   -0.0589 C   0  0  0  0  0  0  0  0  0  0  0  0
   -0.0069    1.4171    1.0122 F   0  0  0  0  0  0  0  0  0  0  0  0
    0.4603    1.2499   -1.1782 F   0  0  0  0  0  0  0  0  0  0  0  0
   -1.2698   -0.0852   -0.2355 C   0  0  0  0  0  0  0  0  0  0  0  0
   -1.3612   -0.9981   -1.2344 F   0  0  0  0  0  0  0  0  0  0  0  0
   -1.7432   -0.6463    0.9345 F   0  0  0  0  0  0  0  0  0  0  0  0
   -2.1539    0.9535   -0.5436 F   0  0  0  0  0  0  0  0  0  0  0  0
  1  2  1  0
  2  3  1  0
  2  4  1  0
  2  5  1  0
  5  6  1  0
  5  7  1  0
  5  8  1  0
  8  9  1  0
  8 10  1  0
  8 11  1  0
M  END
>  <zinc_id>  (1) 
ZINC000008214651

>  <smiles>  (1) 
FC(F)(F)C(F)(F)C(F)(F)F

$$$$
