
     RDKit          3D

 17 17  0  0  0  0  0  0  0  0999 V2000
   -3.2884    2.3615   -0.0103 C   0  0  0  0  0  0  0  0  0  0  0  0
   -2.3669    1.7932   -0.7962 C   0  0  0  0  0  0  0  0  0  0  0  0
   -0.9787    1.9423   -0.3799 C   0  0  0  0  0  0  0  0  0  0  0  0
   -0.2616    0.6480   -0.1183 C   0  0  0  0  0  0  0  0  0  0  0  0
    1.2426    1.0330    0.3252 C   0  0  2  0  0  0  0  0  0  0  0  0
    1.5931    1.8124   -1.0784 C   0  0  0  0  0  0  0  0  0  0  0  0
    1.9618   -0.3439   -0.1446 C   0  0  0  0  0  0  0  0  0  0  0  0
    3.4137   -0.0991    0.2282 C   0  0  0  0  0  0  0  0  0  0  0  0
    4.3040   -1.2389   -0.1067 C   0  0  0  0  0  0  0  0  0  0  0  0
   -0.8355    0.0516    1.1211 C   0  0  0  0  0  0  0  0  0  0  0  0
   -1.2480    0.7721    2.0871 O   0  0  0  0  0  0  0  0  0  0  0  0
   -0.9575   -1.3601    1.3004 N   0  0  0  0  0  0  0  0  0  0  0  0
   -0.7491   -2.2260    0.1940 C   0  0  0  0  0  0  0  0  0  0  0  0
   -0.8644   -3.4574    0.3886 O   0  0  0  0  0  0  0  0  0  0  0  0
   -0.4241   -1.6435   -1.0596 N   0  0  0  0  0  0  0  0  0  0  0  0
   -0.3031   -0.2243   -1.2327 C   0  0  0  0  0  0  0  0  0  0  0  0
   -0.2379    0.1792   -2.4273 O   0  0  0  0  0  0  0  0  0  0  0  0
  1  2  2  0
  2  3  1  0
  3  4  1  0
  4  5  1  0
  5  6  1  6
  5  7  1  0
  7  8  1  0
  8  9  1  0
  4 10  1  0
 10 11  2  0
 10 12  1  0
 12 13  1  0
 13 14  2  0
 13 15  1  0
 15 16  1  0
 16 17  2  0
 16  4  1  0
M  END
>  <zinc_id>  (1) 
ZINC000003874950

>  <smiles>  (1) 
C=CCC1([C@H](C)CCC)C(=O)NC(=O)NC1=O

$$$$
