
     RDKit          3D

 12 12  0  0  0  0  0  0  0  0999 V2000
    3.1264    1.6321   -0.5094 C   0  0  0  0  0  0  0  0  0  0  0  0
    2.4956    0.6987    0.3011 N   0  0  0  0  0  0  0  0  0  0  0  0
    2.0242   -0.3158   -0.6235 C   0  0  0  0  0  0  0  0  0  0  0  0
    1.3000   -1.3662    0.4096 C   0  0  2  0  0  0  0  0  0  0  0  0
    0.8960   -2.3035   -0.7104 O   0  0  0  0  0  0  0  0  0  0  0  0
   -0.0811   -0.5513    0.4373 C   0  0  0  0  0  0  0  0  0  0  0  0
   -0.6016   -0.2974    1.6771 C   0  0  0  0  0  0  0  0  0  0  0  0
   -1.7960    0.4008    1.7160 C   0  0  0  0  0  0  0  0  0  0  0  0
   -2.4103    0.8088    0.5492 C   0  0  0  0  0  0  0  0  0  0  0  0
   -1.8483    0.5301   -0.6775 C   0  0  0  0  0  0  0  0  0  0  0  0
   -2.4461    0.9301   -1.8839 O   0  0  0  0  0  0  0  0  0  0  0  0
   -0.6588   -0.1665   -0.6856 C   0  0  0  0  0  0  0  0  0  0  0  0
  1  2  1  0
  2  3  1  0
  3  4  1  0
  4  5  1  6
  4  6  1  0
  6  7  2  0
  7  8  1  0
  8  9  2  0
  9 10  1  0
 10 11  1  0
 10 12  2  0
 12  6  1  0
M  END
>  <zinc_id>  (1) 
ZINC000000113355

>  <smiles>  (1) 
CNC[C@H](O)c1cccc(O)c1

$$$$
