
     RDKit          3D

 10  9  0  0  0  0  0  0  0  0999 V2000
    2.6815   -0.3165    1.4665 C   0  0  0  0  0  0  0  0  0  0  0  0
    2.5632   -0.0462   -0.0067 C   0  0  0  0  0  0  0  0  0  0  0  0
    1.4020   -0.7397   -0.6458 C   0  0  0  0  0  0  0  0  0  0  0  0
    0.0778   -0.3580   -0.0793 C   0  0  0  0  0  0  0  0  0  0  0  0
   -0.9888   -1.1493   -0.8368 C   0  0  0  0  0  0  0  0  0  0  0  0
   -2.3819   -0.8093   -0.3089 C   0  0  0  0  0  0  0  0  0  0  0  0
   -2.4734   -1.1573    1.1761 C   0  0  0  0  0  0  0  0  0  0  0  0
   -0.2020    1.0882   -0.2168 C   0  0  0  0  0  0  0  0  0  0  0  0
    0.6763    1.7936   -0.7729 O   0  0  0  0  0  0  0  0  0  0  0  0
   -1.3548    1.6945    0.2247 O   0  0  0  0  0  0  0  0  0  0  0  0
  1  2  1  0
  2  3  1  0
  3  4  1  0
  4  5  1  0
  5  6  1  0
  6  7  1  0
  4  8  1  0
  8  9  2  0
  8 10  1  0
M  END
>  <zinc_id>  (1) 
ZINC000003008621

>  <smiles>  (1) 
CCCC(CCC)C(=O)O

$$$$
