
     RDKit          3D

 27 29  0  0  0  0  0  0  0  0999 V2000
    5.4921   -2.1517    2.3405 C   0  0  0  0  0  0  0  0  0  0  0  0
    4.2667   -1.8195    1.4820 C   0  0  0  0  0  0  0  0  0  0  0  0
    4.2804   -0.3928    1.2794 N   0  0  0  0  0  0  0  0  0  0  0  0
    5.3557    0.0658    0.4572 C   0  0  0  0  0  0  0  0  0  0  0  0
    5.3107    1.5689    0.2879 C   0  0  0  0  0  0  0  0  0  0  0  0
    2.9704    0.0664    0.8692 C   0  0  0  0  0  0  0  0  0  0  0  0
    2.6786   -0.4640   -0.5167 C   0  0  0  0  0  0  0  0  0  0  0  0
    1.4005   -0.0626   -1.0097 N   0  0  0  0  0  0  0  0  0  0  0  0
    0.2921   -0.9484   -0.7401 C   0  0  0  0  0  0  0  0  0  0  0  0
    0.6417   -2.2619   -0.7274 C   0  0  0  0  0  0  0  0  0  0  0  0
   -0.3828   -3.1915   -0.5847 C   0  0  0  0  0  0  0  0  0  0  0  0
   -1.6980   -2.7849   -0.4612 C   0  0  0  0  0  0  0  0  0  0  0  0
   -3.0135   -3.9488   -0.2816 Cl  0  0  0  0  0  0  0  0  0  0  0  0
   -2.0425   -1.4526   -0.4722 C   0  0  0  0  0  0  0  0  0  0  0  0
   -1.0194   -0.5035   -0.6141 C   0  0  0  0  0  0  0  0  0  0  0  0
   -1.5514    0.8228   -0.6370 C   0  0  0  0  0  0  0  0  0  0  0  0
   -2.7140    1.2465    0.1010 C   0  0  0  0  0  0  0  0  0  0  0  0
   -3.2963    2.4835   -0.2884 C   0  0  0  0  0  0  0  0  0  0  0  0
   -4.3079    3.0974    0.3333 C   0  0  0  0  0  0  0  0  0  0  0  0
   -4.8603    2.5176    1.4467 C   0  0  0  0  0  0  0  0  0  0  0  0
   -4.3511    1.3315    1.8802 C   0  0  0  0  0  0  0  0  0  0  0  0
   -3.2718    0.6947    1.2057 C   0  0  0  0  0  0  0  0  0  0  0  0
   -2.7874   -0.4070    1.8229 F   0  0  0  0  0  0  0  0  0  0  0  0
   -1.0325    1.7496   -1.4385 N   0  0  0  0  0  0  0  0  0  0  0  0
    0.0425    1.7189   -2.3644 C   0  0  0  0  0  0  0  0  0  0  0  0
    1.2962    1.1594   -1.7517 C   0  0  0  0  0  0  0  0  0  0  0  0
    2.3012    1.8662   -1.9398 O   0  0  0  0  0  0  0  0  0  0  0  0
  1  2  1  0
  2  3  1  0
  3  4  1  0
  4  5  1  0
  3  6  1  0
  6  7  1  0
  7  8  1  0
  8  9  1  0
  9 10  2  0
 10 11  1  0
 11 12  2  0
 12 13  1  0
 12 14  1  0
 14 15  2  0
 15 16  1  0
 16 17  1  0
 17 18  2  0
 18 19  1  0
 19 20  2  0
 20 21  1  0
 21 22  2  0
 22 23  1  0
 16 24  2  0
 24 25  1  0
 25 26  1  0
 26 27  2  0
 26  8  1  0
 15  9  1  0
 22 17  1  0
M  END
>  <zinc_id>  (1) 
ZINC000000537752

>  <smiles>  (1) 
CCN(CC)CCN1C(=O)CN=C(c2ccccc2F)c2cc(Cl)ccc21

$$$$
