
     RDKit          3D

 11 11  0  0  0  0  0  0  0  0999 V2000
    4.2912   -0.0993    0.2586 C   0  0  0  0  0  0  0  0  0  0  0  0
    2.8178    0.0237    0.5979 C   0  0  0  0  0  0  0  0  0  0  0  0
    2.0160   -0.2078   -0.6737 C   0  0  0  0  0  0  0  0  0  0  0  0
    0.5597   -0.0935   -0.3739 C   0  0  0  0  0  0  0  0  0  0  0  0
   -0.0672    1.1410   -0.4782 C   0  0  0  0  0  0  0  0  0  0  0  0
   -1.4145    1.2535   -0.2021 C   0  0  0  0  0  0  0  0  0  0  0  0
   -2.0037    2.3690   -0.2913 O   0  0  0  0  0  0  0  0  0  0  0  0
   -2.1090    0.1614    0.1667 N   0  0  0  0  0  0  0  0  0  0  0  0
   -1.5096   -1.0503    0.2727 C   0  0  0  0  0  0  0  0  0  0  0  0
   -2.3862   -2.3627    0.7251 S   0  0  0  0  0  0  0  0  0  0  0  0
   -0.1946   -1.1350   -0.0018 N   0  0  0  0  0  0  0  0  0  0  0  0
  1  2  1  0
  2  3  1  0
  3  4  1  0
  4  5  2  0
  5  6  1  0
  6  7  2  0
  6  8  1  0
  8  9  1  0
  9 10  2  0
  9 11  1  0
 11  4  1  0
M  END
>  <zinc_id>  (1) 
ZINC000004640636

>  <smiles>  (1) 
CCCc1cc(=O)[nH]c(=S)[nH]1

$$$$
