
     RDKit          3D

 23 25  0  0  0  0  0  0  0  0999 V2000
    4.3873    0.0827   -0.6624 C   0  0  0  0  0  0  0  0  0  0  0  0
    3.9916   -0.5639   -0.0178 N   0  0  0  0  0  0  0  0  0  0  0  0
    4.7241   -1.8216    0.0251 C   0  0  0  0  0  0  0  0  0  0  0  0
    3.8730   -0.0233    1.3203 C   0  0  0  0  0  0  0  0  0  0  0  0
    2.6717    0.8504    1.3658 C   0  0  0  0  0  0  0  0  0  0  0  0
    2.2072    0.8200   -0.2308 C   0  0  2  0  0  0  0  0  0  0  0  0
    0.7221    0.5437    0.1245 O   0  0  0  0  0  0  0  0  0  0  0  0
   -0.0593    0.4428   -1.0466 C   0  0  0  0  0  0  0  0  0  0  0  0
    0.4571    0.5721   -2.1845 O   0  0  0  0  0  0  0  0  0  0  0  0
   -1.5119    0.1819   -0.9856 C   0  0  1  0  0  0  0  0  0  0  0  0
   -2.0045    0.1367   -2.2858 O   0  0  0  0  0  0  0  0  0  0  0  0
   -1.8586   -1.0295   -0.2462 C   0  0  0  0  0  0  0  0  0  0  0  0
   -1.1889   -2.2156   -0.4195 C   0  0  0  0  0  0  0  0  0  0  0  0
   -1.5281   -3.3586    0.2889 C   0  0  0  0  0  0  0  0  0  0  0  0
   -2.5585   -3.3328    1.1958 C   0  0  0  0  0  0  0  0  0  0  0  0
   -3.2433   -2.1553    1.3855 C   0  0  0  0  0  0  0  0  0  0  0  0
   -2.8885   -1.0174    0.6651 C   0  0  0  0  0  0  0  0  0  0  0  0
   -2.1449    1.4275   -0.3431 C   0  0  0  0  0  0  0  0  0  0  0  0
   -1.8776    2.6551   -1.1469 C   0  0  0  0  0  0  0  0  0  0  0  0
   -1.4874    3.7507   -0.1813 C   0  0  0  0  0  0  0  0  0  0  0  0
   -1.6518    3.1804    1.2085 C   0  0  0  0  0  0  0  0  0  0  0  0
   -1.6040    1.6749    1.0303 C   0  0  0  0  0  0  0  0  0  0  0  0
    2.5733   -0.8009   -0.3352 C   0  0  0  0  0  0  0  0  0  0  0  0
  1  2  1  0
  2  3  1  0
  2  4  1  0
  4  5  1  0
  5  6  1  0
  6  7  1  1
  7  8  1  0
  8  9  2  0
  8 10  1  0
 10 11  1  6
 10 12  1  0
 12 13  2  0
 13 14  1  0
 14 15  2  0
 15 16  1  0
 16 17  2  0
 10 18  1  0
 18 19  1  0
 19 20  1  0
 20 21  1  0
 21 22  1  0
  6 23  1  0
 23  2  1  0
 17 12  1  0
 22 18  1  0
M  CHG  1   2   1
M  END
>  <zinc_id>  (1) 
ZINC000000896958

>  <smiles>  (1) 
C[N+]1(C)CC[C@H](OC(=O)[C@@](O)(c2ccccc2)C2CCCC2)C1

$$$$
