
     RDKit          3D

 22 23  0  0  0  0  0  0  0  0999 V2000
    4.8190   -1.7346   -0.7770 C   0  0  0  0  0  0  0  0  0  0  0  0
    3.7422   -0.7037   -0.4480 C   0  0  0  0  0  0  0  0  0  0  0  0
    2.4842   -1.0010   -0.3117 N   0  0  0  0  0  0  0  0  0  0  0  0
    1.6138   -0.0504   -0.0264 C   0  0  0  0  0  0  0  0  0  0  0  0
    0.1689   -0.2181    0.1589 C   0  0  0  0  0  0  0  0  0  0  0  0
   -0.6036    0.8954    0.4566 C   0  0  0  0  0  0  0  0  0  0  0  0
   -1.9670    0.8344    0.6474 C   0  0  0  0  0  0  0  0  0  0  0  0
   -2.5703   -0.4010    0.5323 C   0  0  0  0  0  0  0  0  0  0  0  0
   -3.9525   -0.5119    0.7176 O   0  0  0  0  0  0  0  0  0  0  0  0
   -4.7321    0.6061    1.0171 C   0  0  0  0  0  0  0  0  0  0  0  0
   -4.6710    1.6757   -0.0450 C   0  0  0  0  0  0  0  0  0  0  0  0
   -5.5519    2.8268    0.3939 C   0  0  0  0  0  0  0  0  0  0  0  0
   -5.1734    1.0800   -1.3316 C   0  0  0  0  0  0  0  0  0  0  0  0
   -1.8323   -1.5328    0.2367 C   0  0  0  0  0  0  0  0  0  0  0  0
   -2.5009   -2.7987    0.1261 C   0  0  0  0  0  0  0  0  0  0  0  0
   -3.0211   -3.8271    0.0327 N   0  0  0  0  0  0  0  0  0  0  0  0
   -0.4488   -1.4334    0.0492 C   0  0  0  0  0  0  0  0  0  0  0  0
    2.5957    1.3368    0.0579 S   0  0  0  0  0  0  0  0  0  0  0  0
    4.1049    0.6121   -0.2842 C   0  0  0  0  0  0  0  0  0  0  0  0
    5.4454    1.2137   -0.3825 C   0  0  0  0  0  0  0  0  0  0  0  0
    6.4754    0.5586   -0.6426 O   0  0  0  0  0  0  0  0  0  0  0  0
    5.5755    2.5733   -0.1771 O   0  0  0  0  0  0  0  0  0  0  0  0
  1  2  1  0
  2  3  1  0
  3  4  2  0
  4  5  1  0
  5  6  2  0
  6  7  1  0
  7  8  2  0
  8  9  1  0
  9 10  1  0
 10 11  1  0
 11 12  1  0
 11 13  1  0
  8 14  1  0
 14 15  1  0
 15 16  3  0
 14 17  2  0
  4 18  1  0
 18 19  1  0
 19 20  1  0
 20 21  2  0
 20 22  1  0
 19  2  2  0
 17  5  1  0
M  END
>  <zinc_id>  (1) 
ZINC000000005423

>  <smiles>  (1) 
Cc1nc(-c2ccc(OCC(C)C)c(C#N)c2)sc1C(=O)O

$$$$
