
     RDKit          3D

 39 41  0  0  0  0  0  0  0  0999 V2000
   -2.6429    6.1668    1.3662 C   0  0  0  0  0  0  0  0  0  0  0  0
   -3.4664    4.9966    0.8884 C   0  0  0  0  0  0  0  0  0  0  0  0
   -2.7819    4.4632   -0.3809 C   0  0  0  0  0  0  0  0  0  0  0  0
   -2.9715    4.9856   -1.5079 O   0  0  0  0  0  0  0  0  0  0  0  0
   -1.9666    3.4534   -0.3702 O   0  0  0  0  0  0  0  0  0  0  0  0
   -1.0522    2.7810   -1.3573 C   0  0  1  0  0  0  0  0  0  0  0  0
   -1.9175    1.4961   -1.3347 O   0  0  0  0  0  0  0  0  0  0  0  0
   -1.1859    0.5104   -0.1640 P   0  0  2  0  0  0  0  0  0  0  0  0
   -1.2426   -0.8843   -0.5811 O   0  0  0  0  0  0  0  0  0  0  0  0
   -2.1388    0.7664    1.3976 C   0  0  0  0  0  0  0  0  0  0  0  0
   -2.6780   -0.4272    2.0001 C   0  0  0  0  0  0  0  0  0  0  0  0
   -3.6430   -1.2095    1.2139 C   0  0  0  0  0  0  0  0  0  0  0  0
   -4.1389   -2.4394    2.0174 C   0  0  0  0  0  0  0  0  0  0  0  0
   -5.0775   -3.0981    1.1091 C   0  0  0  0  0  0  0  0  0  0  0  0
   -4.7477   -4.1291    0.3015 C   0  0  0  0  0  0  0  0  0  0  0  0
   -5.5864   -4.7309   -0.6039 C   0  0  0  0  0  0  0  0  0  0  0  0
   -6.8926   -4.2202   -0.6789 C   0  0  0  0  0  0  0  0  0  0  0  0
   -7.2543   -3.1760    0.1348 C   0  0  0  0  0  0  0  0  0  0  0  0
   -6.3603   -2.5991    1.0354 C   0  0  0  0  0  0  0  0  0  0  0  0
    0.4838    1.1264    0.1801 C   0  0  0  0  0  0  0  0  0  0  0  0
    1.2989    0.0851    0.7948 C   0  0  0  0  0  0  0  0  0  0  0  0
    0.8576   -0.4567    1.8343 O   0  0  0  0  0  0  0  0  0  0  0  0
    2.5275   -0.3174    0.2712 N   0  0  0  0  0  0  0  0  0  0  0  0
    3.4499   -1.1773    0.6713 C   0  0  0  0  0  0  0  0  0  0  0  0
    4.8137   -0.9839   -0.1336 C   0  0  2  0  0  0  0  0  0  0  0  0
    5.6048   -0.4172    1.2510 C   0  0  0  0  0  0  0  0  0  0  0  0
    5.4415   -1.4116    2.2861 C   0  0  0  0  0  0  0  0  0  0  0  0
    6.3550   -2.5395    2.4490 C   0  0  0  0  0  0  0  0  0  0  0  0
    7.7451   -2.1422    2.0561 C   0  0  0  0  0  0  0  0  0  0  0  0
    7.6582   -1.6874    0.5868 C   0  0  0  0  0  0  0  0  0  0  0  0
    7.0001   -0.3131    0.6531 C   0  0  0  0  0  0  0  0  0  0  0  0
    4.5197    0.5327   -0.6091 C   0  0  0  0  0  0  0  0  0  0  0  0
    2.9655    0.3487   -1.1314 C   0  0  1  0  0  0  0  0  0  0  0  0
    3.2001   -1.0127   -1.9432 C   0  0  0  0  0  0  0  0  0  0  0  0
    3.9155   -0.9532   -2.9374 O   0  0  0  0  0  0  0  0  0  0  0  0
    2.6215   -2.1639   -1.5079 O   0  0  0  0  0  0  0  0  0  0  0  0
   -1.5322    3.4376   -2.7854 C   0  0  0  0  0  0  0  0  0  0  0  0
   -0.6403    2.6424   -3.7771 C   0  0  0  0  0  0  0  0  0  0  0  0
   -0.5409    4.6974   -2.6942 C   0  0  0  0  0  0  0  0  0  0  0  0
  1  2  1  0
  2  3  1  0
  3  4  2  0
  3  5  1  0
  6  5  1  1
  6  7  1  0
  7  8  1  0
  8  9  2  0
  8 10  1  1
 10 11  1  0
 11 12  1  0
 12 13  1  0
 13 14  1  0
 14 15  2  0
 15 16  1  0
 16 17  2  0
 17 18  1  0
 18 19  2  0
  8 20  1  0
 20 21  1  0
 21 22  2  0
 21 23  1  0
 23 24  1  0
 24 25  1  0
 25 26  1  1
 26 27  1  0
 27 28  1  0
 28 29  1  0
 29 30  1  0
 30 31  1  0
 25 32  1  0
 32 33  1  0
 33 34  1  6
 34 35  2  0
 34 36  1  0
  6 37  1  0
 37 38  1  0
 37 39  1  0
 19 14  1  0
 33 23  1  0
 31 26  1  0
M  END
>  <zinc_id>  (1) 
ZINC000003977764

>  <smiles>  (1) 
CCC(=O)O[C@@H](O[P@](=O)(CCCCc1ccccc1)CC(=O)N1C[C@H](C2CCCCC2)C[C@H]1C(=O)O)C(C)C

$$$$
