
     RDKit          3D

 26 26  0  0  0  0  0  0  0  0999 V2000
    8.4011   -0.0830    0.7344 C   0  0  0  0  0  0  0  0  0  0  0  0
    7.5489    0.5765   -0.0912 C   0  0  0  0  0  0  0  0  0  0  0  0
    6.7376   -0.4443   -0.8991 C   0  0  0  0  0  0  0  0  0  0  0  0
    5.7896    0.2923   -1.8184 C   0  0  0  0  0  0  0  0  0  0  0  0
    4.8288    1.1671   -1.0370 C   0  0  0  0  0  0  0  0  0  0  0  0
    3.9693    0.4180   -0.0751 C   0  0  0  0  0  0  0  0  0  0  0  0
    3.1122   -0.5902   -0.7895 C   0  0  0  0  0  0  0  0  0  0  0  0
    2.2181   -0.0982   -1.7317 N   0  0  0  0  0  0  0  0  0  0  0  0
    2.7044    0.4730   -2.9315 C   0  0  0  0  0  0  0  0  0  0  0  0
    1.5553    0.9363   -3.7978 C   0  0  0  0  0  0  0  0  0  0  0  0
    0.8753   -0.5159   -1.7161 C   0  0  0  0  0  0  0  0  0  0  0  0
    0.1730   -0.0072   -0.5234 C   0  0  0  0  0  0  0  0  0  0  0  0
    0.8448   -0.5327    0.6909 C   0  0  0  0  0  0  0  0  0  0  0  0
    0.0340    0.0549    2.0040 C   0  0  1  0  0  0  0  0  0  0  0  0
    0.2858    1.5054    1.6093 O   0  0  0  0  0  0  0  0  0  0  0  0
   -1.4238   -0.0517    1.4064 C   0  0  0  0  0  0  0  0  0  0  0  0
   -2.2453    1.0128    1.5970 C   0  0  0  0  0  0  0  0  0  0  0  0
   -3.5616    0.9375    1.0980 C   0  0  0  0  0  0  0  0  0  0  0  0
   -3.9683   -0.2027    0.4390 C   0  0  0  0  0  0  0  0  0  0  0  0
   -5.3104   -0.2429   -0.0544 N   0  0  0  0  0  0  0  0  0  0  0  0
   -6.5922    0.2801    0.9372 S   0  0  0  0  0  0  0  0  0  0  0  0
   -6.6942   -0.7306    2.4081 C   0  0  0  0  0  0  0  0  0  0  0  0
   -7.8799    0.1763    0.1347 O   0  0  0  0  0  0  0  0  0  0  0  0
   -6.4740    1.7092    1.3779 O   0  0  0  0  0  0  0  0  0  0  0  0
   -3.1166   -1.2459    0.2681 C   0  0  0  0  0  0  0  0  0  0  0  0
   -1.8120   -1.1779    0.7602 C   0  0  0  0  0  0  0  0  0  0  0  0
  1  2  1  0
  2  3  1  0
  3  4  1  0
  4  5  1  0
  5  6  1  0
  6  7  1  0
  7  8  1  0
  8  9  1  0
  9 10  1  0
  8 11  1  0
 11 12  1  0
 12 13  1  0
 13 14  1  0
 14 15  1  6
 14 16  1  0
 16 17  2  0
 17 18  1  0
 18 19  2  0
 19 20  1  0
 20 21  1  0
 21 22  1  0
 21 23  2  0
 21 24  2  0
 19 25  1  0
 25 26  2  0
 26 16  1  0
M  END
>  <zinc_id>  (1) 
ZINC000008214402

>  <smiles>  (1) 
CCCCCCCN(CC)CCC[C@@H](O)c1ccc(NS(C)(=O)=O)cc1

$$$$
