
     RDKit          3D

 28 29  0  0  0  0  0  0  0  0999 V2000
    3.9971   -1.4257    0.7100 C   0  0  0  0  0  0  0  0  0  0  0  0
    2.7323   -0.7880   -0.1596 C   0  0  1  0  0  0  0  0  0  0  0  0
    2.1957    0.1630    1.1939 C   0  0  2  0  0  0  0  0  0  0  0  0
    0.7237    0.2690    0.6262 N   0  0  0  0  0  0  0  0  0  0  0  0
   -0.0705   -0.8837    0.8369 C   0  0  0  0  0  0  0  0  0  0  0  0
    0.4739   -1.8486    1.4389 O   0  0  0  0  0  0  0  0  0  0  0  0
   -1.4443   -0.9834    0.3972 C   0  0  0  0  0  0  0  0  0  0  0  0
   -1.9911   -0.0039   -0.2103 N   0  0  0  0  0  0  0  0  0  0  0  0
   -1.2816    1.1399   -0.4472 O   0  0  0  0  0  0  0  0  0  0  0  0
   -1.8315    2.4271   -0.2256 C   0  0  0  0  0  0  0  0  0  0  0  0
   -2.2124    2.5904    1.2517 C   0  0  0  0  0  0  0  0  0  0  0  0
   -0.8334    3.4878   -0.6154 C   0  0  0  0  0  0  0  0  0  0  0  0
   -3.0668    2.5988   -1.0384 C   0  0  0  0  0  0  0  0  0  0  0  0
   -3.5008    1.6935   -1.7805 O   0  0  0  0  0  0  0  0  0  0  0  0
   -3.7300    3.8129   -0.9445 O   0  0  0  0  0  0  0  0  0  0  0  0
   -2.1874   -2.2363    0.6707 C   0  0  0  0  0  0  0  0  0  0  0  0
   -1.6023   -3.2831    1.3146 C   0  0  0  0  0  0  0  0  0  0  0  0
   -2.8853   -4.4439    1.3644 S   0  0  0  0  0  0  0  0  0  0  0  0
   -4.0624   -3.4892    0.5560 C   0  0  0  0  0  0  0  0  0  0  0  0
   -5.4284   -3.8272    0.2296 N   0  0  0  0  0  0  0  0  0  0  0  0
   -3.4315   -2.3796    0.3037 N   0  0  0  0  0  0  0  0  0  0  0  0
    2.7795    1.3550    0.3394 C   0  0  0  0  0  0  0  0  0  0  0  0
    2.5273    2.5352    0.5121 O   0  0  0  0  0  0  0  0  0  0  0  0
    3.5237    0.5460   -0.4792 N   0  0  0  0  0  0  0  0  0  0  0  0
    4.8555    0.7317   -1.5291 S   0  0  0  0  0  0  0  0  0  0  0  0
    4.6634    2.0447   -2.2332 O   0  0  0  0  0  0  0  0  0  0  0  0
    6.1096    0.7242   -0.6828 O   0  0  0  0  0  0  0  0  0  0  0  0
    4.9780   -0.5269   -2.6037 O   0  0  0  0  0  0  0  0  0  0  0  0
  2  1  1  1
  2  3  1  0
  3  4  1  6
  4  5  1  0
  5  6  2  0
  5  7  1  0
  7  8  2  0
  8  9  1  0
  9 10  1  0
 10 11  1  0
 10 12  1  0
 10 13  1  0
 13 14  2  0
 13 15  1  0
  7 16  1  0
 16 17  2  0
 17 18  1  0
 18 19  1  0
 19 20  1  0
 19 21  2  0
  3 22  1  0
 22 23  2  0
 22 24  1  0
 24 25  1  0
 25 26  2  0
 25 27  2  0
 25 28  1  0
 24  2  1  0
 21 16  1  0
M  END
>  <zinc_id>  (1) 
ZINC000003830264

>  <smiles>  (1) 
C[C@H]1[C@H](NC(=O)/C(=N\OC(C)(C)C(=O)O)c2csc(N)n2)C(=O)N1S(=O)(=O)O

$$$$
