
     RDKit          3D

 19 20  0  0  0  0  0  0  0  0999 V2000
   -1.8573    1.8850   -1.5245 O   0  0  0  0  0  0  0  0  0  0  0  0
   -2.8688    1.6120   -0.7939 C   0  0  0  0  0  0  0  0  0  0  0  0
   -4.1574    1.9311   -1.2012 O   0  0  0  0  0  0  0  0  0  0  0  0
   -2.6803    0.9573    0.4793 C   0  0  0  0  0  0  0  0  0  0  0  0
   -2.0414   -0.3852    0.4442 C   0  0  0  0  0  0  0  0  0  0  0  0
   -2.9427   -1.4550    0.5908 C   0  0  0  0  0  0  0  0  0  0  0  0
   -2.4142   -2.7155    0.5642 C   0  0  0  0  0  0  0  0  0  0  0  0
   -1.0701   -2.9462    0.4043 C   0  0  0  0  0  0  0  0  0  0  0  0
   -0.1930   -1.8889    0.2614 C   0  0  0  0  0  0  0  0  0  0  0  0
   -0.7023   -0.6145    0.2846 C   0  0  0  0  0  0  0  0  0  0  0  0
    0.1658    0.4701    0.1362 N   0  0  0  0  0  0  0  0  0  0  0  0
    1.5574    0.4256    0.0286 C   0  0  0  0  0  0  0  0  0  0  0  0
    2.2980    0.5547    1.2098 C   0  0  0  0  0  0  0  0  0  0  0  0
    1.4524    0.7806    2.7079 Cl  0  0  0  0  0  0  0  0  0  0  0  0
    3.6646    0.5115    1.2108 C   0  0  0  0  0  0  0  0  0  0  0  0
    4.3778    0.3392    0.0605 C   0  0  0  0  0  0  0  0  0  0  0  0
    3.6670    0.2059   -1.1382 C   0  0  0  0  0  0  0  0  0  0  0  0
    2.3036    0.2542   -1.1055 C   0  0  0  0  0  0  0  0  0  0  0  0
    1.4409    0.0781   -2.6194 Cl  0  0  0  0  0  0  0  0  0  0  0  0
  1  2  2  0
  2  3  1  0
  2  4  1  0
  4  5  1  0
  5  6  2  0
  6  7  1  0
  7  8  2  0
  8  9  1  0
  9 10  2  0
 10 11  1  0
 11 12  1  0
 12 13  2  0
 13 14  1  0
 13 15  1  0
 15 16  2  0
 16 17  1  0
 17 18  2  0
 18 19  1  0
 10  5  1  0
 18 12  1  0
M  END
>  <zinc_id>  (1) 
ZINC000000001281

>  <smiles>  (1) 
O=C(O)Cc1ccccc1Nc1c(Cl)cccc1Cl

$$$$
