
     RDKit          3D

 23 26  0  0  0  0  0  0  0  0999 V2000
   -4.8922    2.4208    0.1318 C   0  0  0  0  0  0  0  0  0  0  0  0
   -3.8399    1.5681    0.0131 N   0  0  0  0  0  0  0  0  0  0  0  0
   -2.5728    1.8854   -0.1484 N   0  0  0  0  0  0  0  0  0  0  0  0
   -1.7790    0.8205   -0.2318 C   0  0  0  0  0  0  0  0  0  0  0  0
   -0.3419    0.7480   -0.4081 C   0  0  0  0  0  0  0  0  0  0  0  0
    0.4022    1.7437   -0.5137 O   0  0  0  0  0  0  0  0  0  0  0  0
    0.2995   -0.5088   -0.4692 N   0  0  0  0  0  0  0  0  0  0  0  0
    1.6877   -0.6538   -0.6374 C   0  0  0  0  0  0  0  0  0  0  0  0
    2.2826    0.7161   -0.8075 C   0  0  0  0  0  0  0  0  0  0  0  0
    3.9096    0.7002   -0.8588 C   0  0  1  0  0  0  0  0  0  0  0  0
    4.3187    1.5097    0.5038 C   0  0  0  0  0  0  0  0  0  0  0  0
    5.0257    0.6520    1.5286 C   0  0  0  0  0  0  0  0  0  0  0  0
    4.2483   -0.6385    1.9973 C   0  0  0  0  0  0  0  0  0  0  0  0
    3.1043   -0.2658    0.9718 C   0  0  2  0  0  0  0  0  0  0  0  0
    2.1650   -1.4791    0.6169 C   0  0  0  0  0  0  0  0  0  0  0  0
    4.1037   -0.6540   -0.2162 N   0  0  0  0  0  0  0  0  0  0  0  0
    4.1440   -1.7613   -0.7690 C   0  0  0  0  0  0  0  0  0  0  0  0
   -2.6418   -0.2625   -0.1100 C   0  0  0  0  0  0  0  0  0  0  0  0
   -2.4297   -1.6430   -0.1182 C   0  0  0  0  0  0  0  0  0  0  0  0
   -3.4953   -2.4915    0.0247 C   0  0  0  0  0  0  0  0  0  0  0  0
   -4.7695   -1.9975    0.1760 C   0  0  0  0  0  0  0  0  0  0  0  0
   -4.9995   -0.6290    0.1866 C   0  0  0  0  0  0  0  0  0  0  0  0
   -3.9297    0.2202    0.0429 C   0  0  0  0  0  0  0  0  0  0  0  0
  1  2  1  0
  2  3  1  0
  3  4  2  0
  4  5  1  0
  5  6  2  0
  5  7  1  0
  7  8  1  0
  8  9  1  0
 10  9  1  1
 10 11  1  0
 11 12  1  0
 12 13  1  0
 14 13  1  1
 14 15  1  0
 14 16  1  0
 16 17  1  0
  4 18  1  0
 18 19  2  0
 19 20  1  0
 20 21  2  0
 21 22  1  0
 22 23  2  0
 23  2  1  0
 15  8  1  0
 23 18  1  0
 16 10  1  0
M  END
>  <zinc_id>  (1) 
ZINC000000896560

>  <smiles>  (1) 
CN1[C@@H]2CCC[C@@H]1CC(NC(=O)c1nn(C)c3ccccc13)C2

$$$$
