
     RDKit          3D

 10  9  0  0  0  0  0  0  0  0999 V2000
    4.1105    0.3016    0.2441 N   0  0  0  0  0  0  0  0  0  0  0  0
    3.1367    0.5701   -0.7255 C   0  0  0  0  0  0  0  0  0  0  0  0
    1.7937    0.6584   -0.0662 C   0  0  0  0  0  0  0  0  0  0  0  0
    0.6740    0.9487   -1.0505 C   0  0  0  0  0  0  0  0  0  0  0  0
   -0.6135    1.0066   -0.2292 C   0  0  0  0  0  0  0  0  0  0  0  0
   -0.6334   -0.5094    0.4135 C   0  0  2  0  0  0  0  0  0  0  0  0
   -0.6681   -1.2076   -0.9771 N   0  0  0  0  0  0  0  0  0  0  0  0
   -2.2036   -0.5189    0.6591 C   0  0  0  0  0  0  0  0  0  0  0  0
   -2.9949   -0.9853   -0.1403 O   0  0  0  0  0  0  0  0  0  0  0  0
   -2.6015    0.0540    1.8721 O   0  0  0  0  0  0  0  0  0  0  0  0
  1  2  1  0
  2  3  1  0
  3  4  1  0
  4  5  1  0
  5  6  1  0
  6  7  1  6
  6  8  1  0
  8  9  2  0
  8 10  1  0
M  END
>  <zinc_id>  (1) 
ZINC000001532522

>  <smiles>  (1) 
NCCCC[C@H](N)C(=O)O

$$$$
