
     RDKit          3D

 20 22  0  0  0  0  0  0  0  0999 V2000
    1.7735   -0.7950    1.2597 C   0  0  0  0  0  0  0  0  0  0  0  0
    2.3767   -0.1244   -0.1076 C   0  0  2  0  0  0  0  0  0  0  0  0
    1.1736   -0.6732   -1.0703 C   0  0  0  0  0  0  0  0  0  0  0  0
   -0.0433   -0.0578   -0.5423 N   0  0  0  0  0  0  0  0  0  0  0  0
   -0.0805    1.3528   -0.3745 C   0  0  0  0  0  0  0  0  0  0  0  0
    1.1102    1.9958   -0.7453 C   0  0  0  0  0  0  0  0  0  0  0  0
    1.1638    3.3590   -0.6210 C   0  0  0  0  0  0  0  0  0  0  0  0
    0.1068    4.1143   -0.1513 C   0  0  0  0  0  0  0  0  0  0  0  0
   -1.0426    3.4208    0.1993 C   0  0  0  0  0  0  0  0  0  0  0  0
   -1.1421    2.0816    0.0947 C   0  0  0  0  0  0  0  0  0  0  0  0
   -2.6208    1.2559    0.5626 S   0  0  0  0  0  0  0  0  0  0  0  0
   -2.3503   -0.4858    0.2572 C   0  0  0  0  0  0  0  0  0  0  0  0
   -3.3919   -1.3752    0.5277 C   0  0  0  0  0  0  0  0  0  0  0  0
   -3.2216   -2.7186    0.3022 C   0  0  0  0  0  0  0  0  0  0  0  0
   -2.0186   -3.1711   -0.1903 C   0  0  0  0  0  0  0  0  0  0  0  0
   -1.0387   -2.2703   -0.4366 C   0  0  0  0  0  0  0  0  0  0  0  0
   -1.1418   -0.8869   -0.2306 C   0  0  0  0  0  0  0  0  0  0  0  0
    3.3744   -1.2599   -0.4062 N   0  0  0  0  0  0  0  0  0  0  0  0
    4.3042   -1.2794    0.6982 C   0  0  0  0  0  0  0  0  0  0  0  0
    2.7091   -2.4827   -0.6235 C   0  0  0  0  0  0  0  0  0  0  0  0
  2  1  1  1
  2  3  1  0
  3  4  1  0
  4  5  1  0
  5  6  2  0
  6  7  1  0
  7  8  2  0
  8  9  1  0
  9 10  2  0
 10 11  1  0
 11 12  1  0
 12 13  2  0
 13 14  1  0
 14 15  2  0
 15 16  1  0
 16 17  2  0
  2 18  1  0
 18 19  1  0
 18 20  1  0
 17  4  1  0
 10  5  1  0
 17 12  1  0
M  END
>  <zinc_id>  (1) 
ZINC000000056647

>  <smiles>  (1) 
C[C@H](CN1c2ccccc2Sc2ccccc21)N(C)C

$$$$
