
     RDKit          3D

 40 45  0  0  0  0  0  0  0  0999 V2000
   -5.9792   -0.6802   -3.1639 C   0  0  0  0  0  0  0  0  0  0  0  0
   -4.8917    0.1337   -2.4850 C   0  0  0  0  0  0  0  0  0  0  0  0
   -4.2579    0.8484   -3.3292 O   0  0  0  0  0  0  0  0  0  0  0  0
   -4.6108    0.1230   -1.2431 O   0  0  0  0  0  0  0  0  0  0  0  0
   -3.6459    0.8888   -0.4993 C   0  0  1  0  0  0  0  0  0  0  0  0
   -3.7919    0.2762    1.0712 C   0  0  1  0  0  0  0  0  0  0  0  0
   -5.2556   -0.1642    1.1065 N   0  0  0  0  0  0  0  0  0  0  0  0
   -5.5858   -1.3586    0.5946 C   0  0  0  0  0  0  0  0  0  0  0  0
   -5.3528   -0.6920    2.4812 C   0  0  0  0  0  0  0  0  0  0  0  0
   -4.6720   -0.0311    3.5270 C   0  0  0  0  0  0  0  0  0  0  0  0
   -5.0180    1.4560    3.4316 C   0  0  0  0  0  0  0  0  0  0  0  0
   -6.2139    1.5895    2.4972 C   0  0  0  0  0  0  0  0  0  0  0  0
   -5.9564    1.0275    1.1121 C   0  0  0  0  0  0  0  0  0  0  0  0
   -3.1492   -1.1865    0.7439 C   0  0  0  0  0  0  0  0  0  0  0  0
   -1.8245   -0.2462    0.6513 C   0  0  1  0  0  0  0  0  0  0  0  0
   -0.7098   -1.3827    0.1702 C   0  0  2  0  0  0  0  0  0  0  0  0
   -0.1611   -1.5375    1.6837 C   0  0  0  0  0  0  0  0  0  0  0  0
    1.1939   -2.1489    1.6383 C   0  0  0  0  0  0  0  0  0  0  0  0
    2.1247   -0.8920    1.1173 C   0  0  1  0  0  0  0  0  0  0  0  0
    3.3914   -1.8073    0.9062 C   0  0  0  0  0  0  0  0  0  0  0  0
    4.5055   -1.0207    0.0158 C   0  0  2  0  0  0  0  0  0  0  0  0
    5.1517   -0.4159    1.2881 O   0  0  0  0  0  0  0  0  0  0  0  0
    5.9064   -1.3645    1.9780 C   0  0  0  0  0  0  0  0  0  0  0  0
    6.6492   -0.8657    3.1715 C   0  0  0  0  0  0  0  0  0  0  0  0
    5.9605   -2.5345    1.6329 O   0  0  0  0  0  0  0  0  0  0  0  0
    3.5576    0.4255   -0.2250 C   0  0  1  0  0  0  0  0  0  0  0  0
    4.4749    1.0628   -1.2344 N   0  0  0  0  0  0  0  0  0  0  0  0
    5.7396    1.4520   -0.6301 C   0  0  0  0  0  0  0  0  0  0  0  0
    6.0996    2.7301   -1.4321 C   0  0  0  0  0  0  0  0  0  0  0  0
    5.9547    2.2781   -2.8929 C   0  0  0  0  0  0  0  0  0  0  0  0
    5.9851    0.7456   -2.9587 C   0  0  0  0  0  0  0  0  0  0  0  0
    4.7094    0.1896   -2.3449 C   0  0  0  0  0  0  0  0  0  0  0  0
    2.6031   -0.3061   -1.2810 C   0  0  0  0  0  0  0  0  0  0  0  0
    1.6241   -1.0438   -0.4401 C   0  0  1  0  0  0  0  0  0  0  0  0
    1.3402   -2.3874   -0.8198 C   0  0  0  0  0  0  0  0  0  0  0  0
    0.3547   -0.1261   -0.1740 C   0  0  1  0  0  0  0  0  0  0  0  0
   -0.1488    0.0084   -1.6925 C   0  0  0  0  0  0  0  0  0  0  0  0
   -1.3087    0.9698   -1.4822 C   0  0  0  0  0  0  0  0  0  0  0  0
   -2.3113    0.0893   -0.8655 C   0  0  2  0  0  0  0  0  0  0  0  0
   -2.4809   -1.1308   -1.6248 C   0  0  0  0  0  0  0  0  0  0  0  0
  1  2  1  0
  2  3  2  0
  2  4  1  0
  5  4  1  6
  5  6  1  0
  6  7  1  6
  7  8  1  0
  7  9  1  0
  9 10  1  0
 10 11  1  0
 11 12  1  0
 12 13  1  0
  6 14  1  0
 15 14  1  1
 15 16  1  0
 16 17  1  1
 17 18  1  0
 19 18  1  1
 19 20  1  0
 20 21  1  0
 21 22  1  1
 22 23  1  0
 23 24  1  0
 23 25  2  0
 21 26  1  0
 26 27  1  6
 27 28  1  0
 28 29  1  0
 29 30  1  0
 30 31  1  0
 31 32  1  0
 26 33  1  0
 33 34  1  0
 34 35  1  6
 34 36  1  0
 36 37  1  6
 37 38  1  0
 38 39  1  0
 39 40  1  6
 39  5  1  0
 13  7  1  0
 39 15  1  0
 36 16  1  0
 34 19  1  0
 32 27  1  0
M  CHG  1   7   1
M  END
>  <zinc_id>  (1) 
ZINC000004097404

>  <smiles>  (1) 
CC(=O)O[C@H]1C[C@@H]2CC[C@@H]3[C@H](CC[C@@]4(C)[C@H]3C[C@H]([N+]3(C)CCCCC3)[C@@H]4OC(C)=O)[C@@]2(C)C[C@@H]1N1CCCCC1

$$$$
