
     RDKit          3D

 28 30  0  0  0  0  0  0  0  0999 V2000
   -4.5799    1.1610   -1.4260 C   0  0  0  0  0  0  0  0  0  0  0  0
   -3.9449    0.8559   -0.0846 C   0  0  0  0  0  0  0  0  0  0  0  0
   -2.4137    0.9326   -0.2552 C   0  0  0  0  0  0  0  0  0  0  0  0
   -1.7600   -0.1501    0.0435 C   0  0  0  0  0  0  0  0  0  0  0  0
   -2.5590   -1.3156    0.5106 C   0  0  0  0  0  0  0  0  0  0  0  0
   -2.0186   -2.0505    1.5334 C   0  0  0  0  0  0  0  0  0  0  0  0
   -2.6207   -3.1575    2.0793 C   0  0  0  0  0  0  0  0  0  0  0  0
   -3.8439   -3.5262    1.5426 C   0  0  0  0  0  0  0  0  0  0  0  0
   -4.4001   -2.7915    0.5089 C   0  0  0  0  0  0  0  0  0  0  0  0
   -3.7536   -1.6809   -0.0092 C   0  0  0  0  0  0  0  0  0  0  0  0
   -0.3396   -0.3653   -0.0544 C   0  0  0  0  0  0  0  0  0  0  0  0
    0.4674   -0.1563   -1.1360 C   0  0  0  0  0  0  0  0  0  0  0  0
    1.8219   -0.3695   -1.1906 C   0  0  0  0  0  0  0  0  0  0  0  0
    2.4553   -0.8368   -0.0673 C   0  0  0  0  0  0  0  0  0  0  0  0
    3.8180   -1.0808   -0.0295 O   0  0  0  0  0  0  0  0  0  0  0  0
    4.4506   -1.5607    1.1364 C   0  0  0  0  0  0  0  0  0  0  0  0
    5.9296   -1.7436    0.9234 C   0  0  0  0  0  0  0  0  0  0  0  0
    6.5698   -0.4934    0.5631 N   0  0  0  0  0  0  0  0  0  0  0  0
    7.9987   -0.6907    0.3711 C   0  0  0  0  0  0  0  0  0  0  0  0
    6.0369   -0.0366   -0.7034 C   0  0  0  0  0  0  0  0  0  0  0  0
    1.7012   -1.0644    1.0456 C   0  0  0  0  0  0  0  0  0  0  0  0
    0.3627   -0.8468    1.0767 C   0  0  0  0  0  0  0  0  0  0  0  0
   -1.9170    2.2006   -0.7096 C   0  0  0  0  0  0  0  0  0  0  0  0
   -2.4578    3.3195   -0.0679 C   0  0  0  0  0  0  0  0  0  0  0  0
   -2.1076    4.6044   -0.4176 C   0  0  0  0  0  0  0  0  0  0  0  0
   -1.2017    4.7595   -1.4257 C   0  0  0  0  0  0  0  0  0  0  0  0
   -0.6598    3.6728   -2.0673 C   0  0  0  0  0  0  0  0  0  0  0  0
   -1.0339    2.4108   -1.6902 C   0  0  0  0  0  0  0  0  0  0  0  0
  1  2  1  0
  2  3  1  0
  3  4  2  0
  4  5  1  0
  5  6  2  0
  6  7  1  0
  7  8  2  0
  8  9  1  0
  9 10  2  0
  4 11  1  0
 11 12  2  0
 12 13  1  0
 13 14  2  0
 14 15  1  0
 15 16  1  0
 16 17  1  0
 17 18  1  0
 18 19  1  0
 18 20  1  0
 14 21  1  0
 21 22  2  0
  3 23  1  0
 23 24  2  0
 24 25  1  0
 25 26  2  0
 26 27  1  0
 27 28  2  0
 10  5  1  0
 22 11  1  0
 28 23  1  0
M  END
>  <zinc_id>  (1) 
ZINC000001530689

>  <smiles>  (1) 
CC/C(=C(\c1ccccc1)c1ccc(OCCN(C)C)cc1)c1ccccc1

$$$$
