
     RDKit          3D

 23 23  0  0  0  0  0  0  0  0999 V2000
   -2.7728   -0.0061   -2.9264 C   0  0  0  0  0  0  0  0  0  0  0  0
   -2.1738   -0.6650   -1.7207 C   0  0  0  0  0  0  0  0  0  0  0  0
   -1.8992    0.2434   -0.5702 C   0  0  0  0  0  0  0  0  0  0  0  0
   -3.0472    0.9100   -0.0855 C   0  0  0  0  0  0  0  0  0  0  0  0
   -4.2006    0.1976    0.4024 C   0  0  0  0  0  0  0  0  0  0  0  0
   -1.1007   -0.6487    0.5489 C   0  0  2  0  0  0  0  0  0  0  0  0
   -1.0249    0.5416    1.5327 N   0  0  0  0  0  0  0  0  0  0  0  0
   -1.5842    0.1858    2.7960 C   0  0  0  0  0  0  0  0  0  0  0  0
   -1.6792    1.1040    3.9624 C   0  0  0  0  0  0  0  0  0  0  0  0
   -2.0313   -0.9679    2.9629 O   0  0  0  0  0  0  0  0  0  0  0  0
    0.3443   -0.7383   -0.1295 C   0  0  1  0  0  0  0  0  0  0  0  0
    0.9884    0.7331   -0.2472 C   0  0  2  0  0  0  0  0  0  0  0  0
    0.5466    1.0420   -1.7073 N   0  0  0  0  0  0  0  0  0  0  0  0
    0.9837    2.3037   -2.2376 C   0  0  0  0  0  0  0  0  0  0  0  0
    1.6427    3.1116   -1.4954 N   0  0  0  0  0  0  0  0  0  0  0  0
    0.6959    2.6755   -3.5808 N   0  0  0  0  0  0  0  0  0  0  0  0
    2.3175   -0.0630   -0.7717 C   0  0  0  0  0  0  0  0  0  0  0  0
    2.7369   -0.8257    0.5385 C   0  0  2  0  0  0  0  0  0  0  0  0
    2.8872   -2.2683   -0.0570 C   0  0  0  0  0  0  0  0  0  0  0  0
    2.6835   -2.5705   -1.2043 O   0  0  0  0  0  0  0  0  0  0  0  0
    3.2866   -3.2321    0.8444 O   0  0  0  0  0  0  0  0  0  0  0  0
    1.1743   -1.1787    1.1932 C   0  0  1  0  0  0  0  0  0  0  0  0
    1.2263    0.1157    1.9521 O   0  0  0  0  0  0  0  0  0  0  0  0
  1  2  1  0
  2  3  1  0
  3  4  1  0
  4  5  1  0
  3  6  1  0
  6  7  1  1
  7  8  1  0
  8  9  1  0
  8 10  2  0
 11  6  1  1
 11 12  1  0
 12 13  1  6
 13 14  1  0
 14 15  2  0
 14 16  1  0
 12 17  1  0
 17 18  1  0
 18 19  1  6
 19 20  2  0
 19 21  1  0
 18 22  1  0
 22 23  1  1
 22 11  1  0
M  END
>  <zinc_id>  (1) 
ZINC000003981610

>  <smiles>  (1) 
CCC(CC)[C@H](NC(C)=O)[C@@H]1[C@H](O)[C@@H](C(=O)O)C[C@H]1NC(=N)N

$$$$
