
     RDKit          3D

 28 30  0  0  0  0  0  0  0  0999 V2000
    7.0418    0.4407   -1.3720 O   0  0  0  0  0  0  0  0  0  0  0  0
    6.4913    0.1278   -1.1739 C   0  0  0  0  0  0  0  0  0  0  0  0
    4.9932    0.7860   -0.9250 C   0  0  1  0  0  0  0  0  0  0  0  0
    4.3847   -0.5504   -0.5158 O   0  0  0  0  0  0  0  0  0  0  0  0
    2.9104    0.0289   -0.4746 C   0  0  1  0  0  0  0  0  0  0  0  0
    2.3614   -1.3946   -0.2091 O   0  0  0  0  0  0  0  0  0  0  0  0
    1.0292   -1.5913   -0.1375 C   0  0  0  0  0  0  0  0  0  0  0  0
    0.6960   -2.9243    0.1551 C   0  0  0  0  0  0  0  0  0  0  0  0
   -0.5788   -3.3738    0.2773 C   0  0  0  0  0  0  0  0  0  0  0  0
   -0.8377   -4.7292    0.5733 O   0  0  0  0  0  0  0  0  0  0  0  0
   -1.6129   -2.4836    0.1072 C   0  0  0  0  0  0  0  0  0  0  0  0
   -1.3225   -1.1623   -0.1821 C   0  0  0  0  0  0  0  0  0  0  0  0
   -2.4482   -0.2644   -0.3520 C   0  0  0  0  0  0  0  0  0  0  0  0
   -3.6938   -0.6422   -0.2458 C   0  0  0  0  0  0  0  0  0  0  0  0
   -4.8186    0.2678   -0.4182 C   0  0  0  0  0  0  0  0  0  0  0  0
   -4.6417    1.6044   -0.7086 C   0  0  0  0  0  0  0  0  0  0  0  0
   -5.7304    2.4585   -0.8698 C   0  0  0  0  0  0  0  0  0  0  0  0
   -7.0103    1.9735   -0.7398 C   0  0  0  0  0  0  0  0  0  0  0  0
   -8.0525    2.8769   -0.9125 O   0  0  0  0  0  0  0  0  0  0  0  0
   -7.2155    0.6396   -0.4494 C   0  0  0  0  0  0  0  0  0  0  0  0
   -6.1041   -0.1934   -0.2932 C   0  0  0  0  0  0  0  0  0  0  0  0
   -0.0119   -0.7485   -0.2973 C   0  0  0  0  0  0  0  0  0  0  0  0
    3.1008    0.3306    1.2636 C   0  0  2  0  0  0  0  0  0  0  0  0
    1.7660    0.9899    1.3588 O   0  0  0  0  0  0  0  0  0  0  0  0
    3.8395    1.8676    0.9117 C   0  0  1  0  0  0  0  0  0  0  0  0
    4.0406    2.1339    2.3819 O   0  0  0  0  0  0  0  0  0  0  0  0
    5.3800    1.1191    0.7602 C   0  0  2  0  0  0  0  0  0  0  0  0
    6.0440    2.4129    0.3916 O   0  0  0  0  0  0  0  0  0  0  0  0
  1  2  1  0
  3  2  1  6
  3  4  1  0
  4  5  1  0
  5  6  1  1
  6  7  1  0
  7  8  2  0
  8  9  1  0
  9 10  1  0
  9 11  2  0
 11 12  1  0
 12 13  1  0
 13 14  2  0
 14 15  1  0
 15 16  2  0
 16 17  1  0
 17 18  2  0
 18 19  1  0
 18 20  1  0
 20 21  2  0
 12 22  2  0
  5 23  1  0
 23 24  1  1
 23 25  1  0
 25 26  1  1
 25 27  1  0
 27 28  1  6
 27  3  1  0
 22  7  1  0
 21 15  1  0
M  END
>  <zinc_id>  (1) 
ZINC000004098633

>  <smiles>  (1) 
OC[C@H]1O[C@@H](Oc2cc(O)cc(/C=C/c3ccc(O)cc3)c2)[C@H](O)[C@@H](O)[C@@H]1O

$$$$
