
     RDKit          3D

 20 21  0  0  0  0  0  0  0  0999 V2000
    1.6986    0.2881    3.0749 C   0  0  0  0  0  0  0  0  0  0  0  0
    2.6702    0.1520    2.0230 N   0  0  0  0  0  0  0  0  0  0  0  0
    2.9826    1.6920    1.3129 S   0  0  0  0  0  0  0  0  0  0  0  0
    4.0228    1.5857    0.2353 O   0  0  0  0  0  0  0  0  0  0  0  0
    3.5531    2.5744    2.3839 O   0  0  0  0  0  0  0  0  0  0  0  0
    1.5380    2.4045    0.5770 C   0  0  0  0  0  0  0  0  0  0  0  0
    1.0227    1.4883   -0.5066 C   0  0  0  0  0  0  0  0  0  0  0  0
    1.4810    1.6418   -1.7882 C   0  0  0  0  0  0  0  0  0  0  0  0
    1.0230    0.8214   -2.7831 C   0  0  0  0  0  0  0  0  0  0  0  0
    0.1005   -0.1725   -2.5409 C   0  0  0  0  0  0  0  0  0  0  0  0
   -0.5311   -1.1101   -3.2534 N   0  0  0  0  0  0  0  0  0  0  0  0
   -1.3529   -1.8299   -2.4725 C   0  0  0  0  0  0  0  0  0  0  0  0
   -1.2690   -1.3563   -1.1853 C   0  0  0  0  0  0  0  0  0  0  0  0
   -2.0148   -1.8764   -0.0152 C   0  0  0  0  0  0  0  0  0  0  0  0
   -3.1498   -0.8993    0.3117 C   0  0  0  0  0  0  0  0  0  0  0  0
   -3.9080   -1.3721    1.4552 N   0  0  0  0  0  0  0  0  0  0  0  0
   -4.6524   -2.5851    1.1314 C   0  0  0  0  0  0  0  0  0  0  0  0
   -2.9757   -1.6519    2.5586 C   0  0  0  0  0  0  0  0  0  0  0  0
   -0.3430   -0.3040   -1.2422 C   0  0  0  0  0  0  0  0  0  0  0  0
    0.1042    0.5094   -0.2279 C   0  0  0  0  0  0  0  0  0  0  0  0
  1  2  1  0
  2  3  1  0
  3  4  2  0
  3  5  2  0
  3  6  1  0
  6  7  1  0
  7  8  2  0
  8  9  1  0
  9 10  2  0
 10 11  1  0
 11 12  1  0
 12 13  2  0
 13 14  1  0
 14 15  1  0
 15 16  1  0
 16 17  1  0
 16 18  1  0
 13 19  1  0
 19 20  2  0
 20  7  1  0
 19 10  1  0
M  END
>  <zinc_id>  (1) 
ZINC000000014360

>  <smiles>  (1) 
CNS(=O)(=O)Cc1ccc2[nH]cc(CCN(C)C)c2c1

$$$$
