
     RDKit          3D

 36 40  0  0  0  0  0  0  0  0999 V2000
    8.5147    1.5325   -1.2345 C   0  0  0  0  0  0  0  0  0  0  0  0
    8.2788    1.1695   -0.2086 C   0  0  0  0  0  0  0  0  0  0  0  0
    8.3259    1.9879    0.7923 O   0  0  0  0  0  0  0  0  0  0  0  0
    7.9122   -0.1567    0.1547 N   0  0  0  0  0  0  0  0  0  0  0  0
    7.6224   -0.5375    1.5208 C   0  0  0  0  0  0  0  0  0  0  0  0
    6.2402   -1.1718    1.5900 C   0  0  0  0  0  0  0  0  0  0  0  0
    5.6905   -1.3413    0.2788 N   0  0  0  0  0  0  0  0  0  0  0  0
    4.3590   -0.9665   -0.0514 C   0  0  0  0  0  0  0  0  0  0  0  0
    3.5520   -0.4147    0.9254 C   0  0  0  0  0  0  0  0  0  0  0  0
    2.2724   -0.0392    0.6638 C   0  0  0  0  0  0  0  0  0  0  0  0
    1.7174   -0.1901   -0.5873 C   0  0  0  0  0  0  0  0  0  0  0  0
    0.4398    0.2063   -0.7709 O   0  0  0  0  0  0  0  0  0  0  0  0
   -0.3128    0.1424   -1.9570 C   0  0  0  0  0  0  0  0  0  0  0  0
   -1.7749    0.7879   -1.4715 C   0  0  1  0  0  0  0  0  0  0  0  0
   -2.6242   -0.0926   -2.6024 C   0  0  0  0  0  0  0  0  0  0  0  0
   -3.6503   -0.5286   -1.8409 O   0  0  0  0  0  0  0  0  0  0  0  0
   -3.4608   -0.3429   -0.5150 C   0  0  2  0  0  0  0  0  0  0  0  0
   -3.7431   -1.3575    0.4698 C   0  0  0  0  0  0  0  0  0  0  0  0
   -4.9683   -1.9588    0.7424 N   0  0  0  0  0  0  0  0  0  0  0  0
   -5.8648   -1.5725    1.6650 C   0  0  0  0  0  0  0  0  0  0  0  0
   -6.9109   -2.4492    1.5953 C   0  0  0  0  0  0  0  0  0  0  0  0
   -6.6330   -3.3450    0.6392 N   0  0  0  0  0  0  0  0  0  0  0  0
   -5.4596   -3.0386    0.1327 C   0  0  0  0  0  0  0  0  0  0  0  0
   -3.9405    1.0211   -0.1592 C   0  0  0  0  0  0  0  0  0  0  0  0
   -3.1204    1.8947    0.5606 C   0  0  0  0  0  0  0  0  0  0  0  0
   -3.5582    3.1268    0.9841 C   0  0  0  0  0  0  0  0  0  0  0  0
   -4.8610    3.4532    0.6559 C   0  0  0  0  0  0  0  0  0  0  0  0
   -5.4841    5.0062    1.1655 Cl  0  0  0  0  0  0  0  0  0  0  0  0
   -5.6847    2.6183   -0.0484 C   0  0  0  0  0  0  0  0  0  0  0  0
   -5.2210    1.3754   -0.4692 C   0  0  0  0  0  0  0  0  0  0  0  0
   -6.3116    0.4014   -1.4594 Cl  0  0  0  0  0  0  0  0  0  0  0  0
   -1.9967   -0.2882   -0.4088 O   0  0  0  0  0  0  0  0  0  0  0  0
    2.5097   -0.7381   -1.5690 C   0  0  0  0  0  0  0  0  0  0  0  0
    3.8056   -1.1142   -1.2886 C   0  0  0  0  0  0  0  0  0  0  0  0
    6.5127   -1.9170   -0.7652 C   0  0  0  0  0  0  0  0  0  0  0  0
    7.8277   -1.1625   -0.8927 C   0  0  0  0  0  0  0  0  0  0  0  0
  1  2  1  0
  2  3  2  0
  2  4  1  0
  4  5  1  0
  5  6  1  0
  6  7  1  0
  7  8  1  0
  8  9  2  0
  9 10  1  0
 10 11  2  0
 11 12  1  0
 12 13  1  0
 14 13  1  6
 14 15  1  0
 15 16  1  0
 16 17  1  0
 17 18  1  1
 18 19  1  0
 19 20  1  0
 20 21  2  0
 21 22  1  0
 22 23  2  0
 17 24  1  0
 24 25  2  0
 25 26  1  0
 26 27  2  0
 27 28  1  0
 27 29  1  0
 29 30  2  0
 30 31  1  0
 17 32  1  0
 11 33  1  0
 33 34  2  0
  7 35  1  0
 35 36  1  0
 36  4  1  0
 34  8  1  0
 32 14  1  0
 23 19  1  0
 30 24  1  0
M  END
>  <zinc_id>  (1) 
ZINC000000643138

>  <smiles>  (1) 
CC(=O)N1CCN(c2ccc(OC[C@H]3CO[C@](Cn4ccnc4)(c4ccc(Cl)cc4Cl)O3)cc2)CC1

$$$$
