
     RDKit          2D

 11 11  0  0  0  0  0  0  0  0999 V2000
    2.8413   -1.6969    0.0000 C   0  0  0  0  0  0  0  0  0  0  0  0
    2.1652   -0.3579    0.0000 C   0  0  0  0  0  0  0  0  0  0  0  0
    2.9867    0.8971    0.0000 C   0  0  0  0  0  0  0  0  0  0  0  0
    0.6675   -0.2740    0.0000 C   0  0  0  0  0  0  0  0  0  0  0  0
   -0.1540   -1.5290    0.0000 C   0  0  0  0  0  0  0  0  0  0  0  0
   -1.6517   -1.4450    0.0000 C   0  0  0  0  0  0  0  0  0  0  0  0
   -2.3278   -0.1061    0.0000 C   0  0  0  0  0  0  0  0  0  0  0  0
   -3.8254   -0.0221    0.0000 C   0  0  0  0  0  0  0  0  0  0  0  0
   -1.5062    1.1490    0.0000 C   0  0  0  0  0  0  0  0  0  0  0  0
   -0.0086    1.0650    0.0000 C   0  0  0  0  0  0  0  0  0  0  0  0
    0.8129    2.3200    0.0000 O   0  0  0  0  0  0  0  0  0  0  0  0
  1  2  1  0
  2  3  1  0
  4  2  1  6
  4  5  1  0
  5  6  1  0
  6  7  1  0
  7  8  1  1
  7  9  1  0
  9 10  1  0
 10 11  1  1
 10  4  1  0
M  END
>  <zinc_id>  (1) 
ZINC000001482164

>  <smiles>  (1) 
CC(C)[C@@H]1CC[C@@H](C)C[C@H]1O

$$$$
