
     RDKit          3D

 30 33  0  0  0  0  0  0  0  0999 V2000
    6.9272    3.5178   -0.3507 O   0  0  0  0  0  0  0  0  0  0  0  0
    6.7293    2.3057   -0.4851 C   0  0  0  0  0  0  0  0  0  0  0  0
    7.9206    1.3812   -0.4389 C   0  0  0  0  0  0  0  0  0  0  0  0
    7.5989    0.3654    0.6158 C   0  0  0  0  0  0  0  0  0  0  0  0
    6.2939   -0.2633    0.3968 C   0  0  0  0  0  0  0  0  0  0  0  0
    6.0590   -1.5851    0.8250 C   0  0  0  0  0  0  0  0  0  0  0  0
    4.8284   -2.1545    0.6280 C   0  0  0  0  0  0  0  0  0  0  0  0
    3.7816   -1.4931    0.0204 C   0  0  0  0  0  0  0  0  0  0  0  0
    2.5792   -2.1569   -0.1304 O   0  0  0  0  0  0  0  0  0  0  0  0
    1.4448   -1.5696   -0.7393 C   0  0  0  0  0  0  0  0  0  0  0  0
    0.9980   -0.3262    0.0043 C   0  0  0  0  0  0  0  0  0  0  0  0
    0.6225   -0.5724    1.4226 C   0  0  0  0  0  0  0  0  0  0  0  0
   -0.5035   -1.5206    1.6536 C   0  0  0  0  0  0  0  0  0  0  0  0
   -1.7294   -1.1026    1.0774 N   0  0  0  0  0  0  0  0  0  0  0  0
   -2.8216   -2.0260    1.3123 C   0  0  0  0  0  0  0  0  0  0  0  0
   -4.0416   -1.6716    0.4912 C   0  0  0  0  0  0  0  0  0  0  0  0
   -4.0166   -0.3141    0.0291 N   0  0  0  0  0  0  0  0  0  0  0  0
   -5.1107    0.5376    0.2666 C   0  0  0  0  0  0  0  0  0  0  0  0
   -4.9843    1.7222    0.9986 C   0  0  0  0  0  0  0  0  0  0  0  0
   -6.0389    2.5672    1.2416 C   0  0  0  0  0  0  0  0  0  0  0  0
   -7.2685    2.2145    0.7330 C   0  0  0  0  0  0  0  0  0  0  0  0
   -7.4503    1.0498   -0.0006 C   0  0  0  0  0  0  0  0  0  0  0  0
   -9.0556    0.6493   -0.6290 Cl  0  0  0  0  0  0  0  0  0  0  0  0
   -6.3791    0.2307   -0.2243 C   0  0  0  0  0  0  0  0  0  0  0  0
   -6.5673   -1.2592   -1.1521 Cl  0  0  0  0  0  0  0  0  0  0  0  0
   -2.8653    0.1698   -0.6780 C   0  0  0  0  0  0  0  0  0  0  0  0
   -1.6705   -0.6280   -0.2632 C   0  0  0  0  0  0  0  0  0  0  0  0
    4.0080   -0.2028   -0.3989 C   0  0  0  0  0  0  0  0  0  0  0  0
    5.2620    0.3936   -0.2046 C   0  0  0  0  0  0  0  0  0  0  0  0
    5.4497    1.7412   -0.6795 N   0  0  0  0  0  0  0  0  0  0  0  0
  1  2  2  0
  2  3  1  0
  3  4  1  0
  4  5  1  0
  5  6  2  0
  6  7  1  0
  7  8  2  0
  8  9  1  0
  9 10  1  0
 10 11  1  0
 11 12  1  0
 12 13  1  0
 13 14  1  0
 14 15  1  0
 15 16  1  0
 16 17  1  0
 17 18  1  0
 18 19  2  0
 19 20  1  0
 20 21  2  0
 21 22  1  0
 22 23  1  0
 22 24  2  0
 24 25  1  0
 17 26  1  0
 26 27  1  0
  8 28  1  0
 28 29  2  0
 29 30  1  0
 30  2  1  0
 29  5  1  0
 27 14  1  0
 24 18  1  0
M  END
>  <zinc_id>  (1) 
ZINC000001851149

>  <smiles>  (1) 
O=C1CCc2ccc(OCCCCN3CCN(c4cccc(Cl)c4Cl)CC3)cc2N1

$$$$
