
     RDKit          3D

 33 36  0  0  0  0  0  0  0  0999 V2000
   -2.0731   -0.2242   -3.9696 C   0  0  0  0  0  0  0  0  0  0  0  0
   -2.4820    0.5678   -3.6447 C   0  0  0  0  0  0  0  0  0  0  0  0
   -2.2503    0.8912   -2.2335 C   0  0  0  0  0  0  0  0  0  0  0  0
   -1.5591    0.2462   -1.3663 N   0  0  0  0  0  0  0  0  0  0  0  0
   -0.1933    0.0207   -1.2483 C   0  0  0  0  0  0  0  0  0  0  0  0
    0.3420    0.6894    0.1474 C   0  0  2  0  0  0  0  0  0  0  0  0
    1.7209   -0.0132    0.1153 C   0  0  0  0  0  0  0  0  0  0  0  0
    1.9930   -1.0812    0.6537 O   0  0  0  0  0  0  0  0  0  0  0  0
    2.7095    0.6397   -0.5952 N   0  0  0  0  0  0  0  0  0  0  0  0
    4.0511    0.0467   -0.7573 C   0  0  0  0  0  0  0  0  0  0  0  0
    4.9541    0.4866    0.3670 C   0  0  0  0  0  0  0  0  0  0  0  0
    6.3451   -0.0793    0.2458 C   0  0  0  0  0  0  0  0  0  0  0  0
    6.2764   -1.5065    0.2716 N   0  0  0  0  0  0  0  0  0  0  0  0
    5.6680   -2.1226   -0.8593 C   0  0  0  0  0  0  0  0  0  0  0  0
    5.8006   -2.0295    1.5321 C   0  0  0  0  0  0  0  0  0  0  0  0
    2.5687    1.9119   -1.1958 C   0  0  0  0  0  0  0  0  0  0  0  0
    1.4788    2.5176   -1.1077 O   0  0  0  0  0  0  0  0  0  0  0  0
    3.5896    2.5746   -1.9074 N   0  0  0  0  0  0  0  0  0  0  0  0
    3.4971    3.8711   -2.5315 C   0  0  0  0  0  0  0  0  0  0  0  0
    2.4598    4.0121   -3.5914 C   0  0  0  0  0  0  0  0  0  0  0  0
   -0.4644   -0.3403    1.1086 C   0  0  0  0  0  0  0  0  0  0  0  0
   -1.9037    0.3995    0.9272 C   0  0  2  0  0  0  0  0  0  0  0  0
   -2.6788   -0.3856    1.9866 C   0  0  0  0  0  0  0  0  0  0  0  0
   -2.1653   -0.5588    3.2315 C   0  0  0  0  0  0  0  0  0  0  0  0
   -2.9109   -1.2816    4.2007 C   0  0  0  0  0  0  0  0  0  0  0  0
   -4.1543   -1.8006    3.8619 C   0  0  0  0  0  0  0  0  0  0  0  0
   -4.6655   -1.6169    2.5894 C   0  0  0  0  0  0  0  0  0  0  0  0
   -5.7669   -1.9396    1.8862 N   0  0  0  0  0  0  0  0  0  0  0  0
   -5.7002   -1.4624    0.6178 C   0  0  0  0  0  0  0  0  0  0  0  0
   -4.5242   -0.8097    0.4886 C   0  0  0  0  0  0  0  0  0  0  0  0
   -3.9019   -0.9166    1.7115 C   0  0  0  0  0  0  0  0  0  0  0  0
   -3.7641   -0.0329   -0.5694 C   0  0  0  0  0  0  0  0  0  0  0  0
   -2.2968   -0.6737   -0.3658 C   0  0  1  0  0  0  0  0  0  0  0  0
  1  2  2  0
  2  3  1  0
  3  4  1  0
  4  5  1  0
  5  6  1  0
  6  7  1  6
  7  8  2  0
  7  9  1  0
  9 10  1  0
 10 11  1  0
 11 12  1  0
 12 13  1  0
 13 14  1  0
 13 15  1  0
  9 16  1  0
 16 17  2  0
 16 18  1  0
 18 19  1  0
 19 20  1  0
  6 21  1  0
 22 21  1  1
 22 23  1  0
 23 24  2  0
 24 25  1  0
 25 26  2  0
 26 27  1  0
 27 28  1  0
 28 29  1  0
 29 30  2  0
 30 31  1  0
 30 32  1  0
 33 32  1  6
 33  4  1  0
 33 22  1  0
 31 23  1  0
 31 27  2  0
M  END
>  <zinc_id>  (1) 
ZINC000003800008

>  <smiles>  (1) 
C=CCN1C[C@H](C(=O)N(CCCN(C)C)C(=O)NCC)C[C@@H]2c3cccc4[nH]cc(c34)C[C@H]21

$$$$
