
     RDKit          3D

 13 13  0  0  0  0  0  0  0  0999 V2000
    3.2742    1.5765    0.1041 C   0  0  0  0  0  0  0  0  0  0  0  0
    2.1856    0.6148   -0.1937 C   0  0  0  0  0  0  0  0  0  0  0  0
    2.1370   -0.0051   -1.2839 O   0  0  0  0  0  0  0  0  0  0  0  0
    1.2139    0.4387    0.8137 O   0  0  0  0  0  0  0  0  0  0  0  0
    0.2067   -0.4646    0.5127 C   0  0  0  0  0  0  0  0  0  0  0  0
    0.3990   -1.8412    0.6967 C   0  0  0  0  0  0  0  0  0  0  0  0
   -0.6050   -2.7383    0.3960 C   0  0  0  0  0  0  0  0  0  0  0  0
   -1.8141   -2.2516   -0.0940 C   0  0  0  0  0  0  0  0  0  0  0  0
   -2.0290   -0.9089   -0.2835 C   0  0  0  0  0  0  0  0  0  0  0  0
   -0.9975   -0.0123    0.0276 C   0  0  0  0  0  0  0  0  0  0  0  0
   -1.1889    1.4194   -0.1485 C   0  0  0  0  0  0  0  0  0  0  0  0
   -0.3580    2.2983    0.1048 O   0  0  0  0  0  0  0  0  0  0  0  0
   -2.4238    1.8742   -0.6519 O   0  0  0  0  0  0  0  0  0  0  0  0
  1  2  1  0
  2  3  2  0
  2  4  1  0
  4  5  1  0
  5  6  2  0
  6  7  1  0
  7  8  2  0
  8  9  1  0
  9 10  2  0
 10 11  1  0
 11 12  2  0
 11 13  1  0
 10  5  1  0
M  END
>  <zinc_id>  (1) 
ZINC000000000053

>  <smiles>  (1) 
CC(=O)Oc1ccccc1C(=O)O

$$$$
