
     RDKit          3D

 29 32  0  0  0  0  0  0  0  0999 V2000
   -4.7517   -1.8041    0.0625 C   0  0  0  0  0  0  0  0  0  0  0  0
   -4.9029   -0.6945   -0.7182 C   0  0  2  0  0  0  0  0  0  0  0  0
   -4.1961   -0.4510   -1.9710 C   0  0  0  0  0  0  0  0  0  0  0  0
   -2.7172   -0.4136   -1.6895 C   0  0  0  0  0  0  0  0  0  0  0  0
   -2.4603    0.9112   -0.7713 C   0  0  2  0  0  0  0  0  0  0  0  0
   -0.9791    0.5354   -0.3625 C   0  0  0  0  0  0  0  0  0  0  0  0
   -0.1450    0.2327   -1.4053 C   0  0  0  0  0  0  0  0  0  0  0  0
    1.1907   -0.1105   -1.2037 C   0  0  0  0  0  0  0  0  0  0  0  0
    1.6326   -0.1304    0.1027 C   0  0  0  0  0  0  0  0  0  0  0  0
    2.9669   -0.4672    0.3846 O   0  0  0  0  0  0  0  0  0  0  0  0
    3.9558    0.4822    0.4450 C   0  0  0  0  0  0  0  0  0  0  0  0
    3.6127    1.6850    0.2343 O   0  0  0  0  0  0  0  0  0  0  0  0
    5.2937    0.1123    0.7316 N   0  0  0  0  0  0  0  0  0  0  0  0
    5.6032   -1.2692    0.9584 C   0  0  0  0  0  0  0  0  0  0  0  0
    5.9527   -1.8591   -0.4022 C   0  0  0  0  0  0  0  0  0  0  0  0
    6.3556   -3.5614   -0.2673 Cl  0  0  0  0  0  0  0  0  0  0  0  0
    6.2916    1.1748    0.7796 C   0  0  0  0  0  0  0  0  0  0  0  0
    6.8317    1.2958   -0.6461 C   0  0  0  0  0  0  0  0  0  0  0  0
    8.0574    2.5871   -0.6312 Cl  0  0  0  0  0  0  0  0  0  0  0  0
    0.7492    0.1831    1.1159 C   0  0  0  0  0  0  0  0  0  0  0  0
   -0.5751    0.5234    0.9146 C   0  0  0  0  0  0  0  0  0  0  0  0
   -1.4470    0.8520    2.1070 C   0  0  0  0  0  0  0  0  0  0  0  0
   -2.7783    1.3838    1.5514 C   0  0  0  0  0  0  0  0  0  0  0  0
   -3.1388    0.1448    0.6112 C   0  0  1  0  0  0  0  0  0  0  0  0
   -4.6583    0.7010    0.1240 C   0  0  2  0  0  0  0  0  0  0  0  0
   -5.4965    0.0452    1.3472 C   0  0  0  0  0  0  0  0  0  0  0  0
   -6.7746   -0.1241    0.7190 C   0  0  0  0  0  0  0  0  0  0  0  0
   -6.4815   -0.2583   -0.9129 C   0  0  2  0  0  0  0  0  0  0  0  0
   -6.9916   -1.7065   -0.9542 O   0  0  0  0  0  0  0  0  0  0  0  0
  2  1  1  1
  2  3  1  0
  3  4  1  0
  5  4  1  6
  5  6  1  0
  6  7  2  0
  7  8  1  0
  8  9  2  0
  9 10  1  0
 10 11  1  0
 11 12  2  0
 11 13  1  0
 13 14  1  0
 14 15  1  0
 15 16  1  0
 13 17  1  0
 17 18  1  0
 18 19  1  0
  9 20  1  0
 20 21  2  0
 21 22  1  0
 22 23  1  0
 24 23  1  1
 24 25  1  0
 25 26  1  1
 26 27  1  0
 27 28  1  0
 28 29  1  1
 25  2  1  0
 28  2  1  0
 24  5  1  0
 21  6  1  0
M  END
>  <zinc_id>  (1) 
ZINC000004099032

>  <smiles>  (1) 
C[C@]12CC[C@@H]3c4ccc(OC(=O)N(CCCl)CCCl)cc4CC[C@H]3[C@@H]1CC[C@@H]2O

$$$$
