
     RDKit          3D

 19 20  0  0  0  0  0  0  0  0999 V2000
    3.1653    3.9423   -0.3228 C   0  0  0  0  0  0  0  0  0  0  0  0
    2.7765    3.5935    0.2155 N   0  0  0  0  0  0  0  0  0  0  0  0
    2.1203    2.5019    0.8991 C   0  0  0  0  0  0  0  0  0  0  0  0
    0.9132    2.0895    0.1029 C   0  0  0  0  0  0  0  0  0  0  0  0
    0.2720    0.8362    1.0271 C   0  0  1  0  0  0  0  0  0  0  0  0
   -0.8927    0.6579    0.0374 O   0  0  0  0  0  0  0  0  0  0  0  0
   -1.8769   -0.2422    0.3753 C   0  0  0  0  0  0  0  0  0  0  0  0
   -1.9735   -0.9736    1.5184 C   0  0  0  0  0  0  0  0  0  0  0  0
   -2.9708   -1.8536    1.8049 C   0  0  0  0  0  0  0  0  0  0  0  0
   -3.9714   -2.0284    0.8719 C   0  0  0  0  0  0  0  0  0  0  0  0
   -3.9103   -1.3073   -0.2960 C   0  0  0  0  0  0  0  0  0  0  0  0
   -2.8879   -0.4240   -0.5585 C   0  0  0  0  0  0  0  0  0  0  0  0
   -2.9170    0.3007   -1.8480 C   0  0  0  0  0  0  0  0  0  0  0  0
    1.2168   -0.2603    0.3257 C   0  0  0  0  0  0  0  0  0  0  0  0
    2.5411   -0.0040    0.2201 C   0  0  0  0  0  0  0  0  0  0  0  0
    3.3469   -0.9491   -0.3739 C   0  0  0  0  0  0  0  0  0  0  0  0
    2.8508   -2.1346   -0.8584 C   0  0  0  0  0  0  0  0  0  0  0  0
    1.4989   -2.3444   -0.7255 C   0  0  0  0  0  0  0  0  0  0  0  0
    0.6989   -1.4006   -0.1332 C   0  0  0  0  0  0  0  0  0  0  0  0
  1  2  1  0
  2  3  1  0
  3  4  1  0
  5  4  1  6
  5  6  1  0
  6  7  1  0
  7  8  2  0
  8  9  1  0
  9 10  2  0
 10 11  1  0
 11 12  2  0
 12 13  1  0
  5 14  1  0
 14 15  2  0
 15 16  1  0
 16 17  2  0
 17 18  1  0
 18 19  2  0
 12  7  1  0
 19 14  1  0
M  END
>  <zinc_id>  (1) 
ZINC000001842633

>  <smiles>  (1) 
CNCC[C@@H](Oc1ccccc1C)c1ccccc1

$$$$
