
     RDKit          3D

 31 34  0  0  0  0  0  0  0  0999 V2000
    8.4840   -0.3273    0.5142 C   0  0  0  0  0  0  0  0  0  0  0  0
    8.1902   -0.3817    0.0675 C   0  0  0  0  0  0  0  0  0  0  0  0
    7.4033    0.2757   -1.0649 C   0  0  0  0  0  0  0  0  0  0  0  0
    6.2775    1.0636   -0.3680 C   0  0  0  0  0  0  0  0  0  0  0  0
    5.4593    1.7482   -1.3961 C   0  0  0  0  0  0  0  0  0  0  0  0
    4.7854    0.8147   -2.3432 C   0  0  0  0  0  0  0  0  0  0  0  0
    3.8113   -0.0707   -1.6801 C   0  0  0  0  0  0  0  0  0  0  0  0
    4.4319   -0.9211   -0.6287 C   0  0  0  0  0  0  0  0  0  0  0  0
    3.4682   -1.8336    0.0547 C   0  0  0  0  0  0  0  0  0  0  0  0
    2.4216   -1.0080    0.6983 C   0  0  0  0  0  0  0  0  0  0  0  0
    2.0656   -1.4602    1.8114 O   0  0  0  0  0  0  0  0  0  0  0  0
    1.9775    0.1039    0.0399 O   0  0  0  0  0  0  0  0  0  0  0  0
    0.9013    0.7346    0.9178 C   0  0  1  0  0  0  0  0  0  0  0  0
    0.7072    2.0570   -0.0829 C   0  0  0  0  0  0  0  0  0  0  0  0
   -0.7906    2.2776    0.1362 C   0  0  0  0  0  0  0  0  0  0  0  0
   -1.1738    1.0739    1.1434 C   0  0  1  0  0  0  0  0  0  0  0  0
   -2.7226    0.9182    0.5525 C   0  0  2  0  0  0  0  0  0  0  0  0
   -3.4134    1.4051    1.9463 C   0  0  0  0  0  0  0  0  0  0  0  0
   -4.7332    0.6358    2.0849 C   0  0  0  0  0  0  0  0  0  0  0  0
   -5.2140    0.0773    0.8396 C   0  0  0  0  0  0  0  0  0  0  0  0
   -6.4870    0.0084    0.4508 C   0  0  0  0  0  0  0  0  0  0  0  0
   -6.7333   -0.5993   -0.8493 C   0  0  0  0  0  0  0  0  0  0  0  0
   -7.6294   -0.1503   -1.5622 O   0  0  0  0  0  0  0  0  0  0  0  0
   -5.8924   -1.7666   -1.3057 C   0  0  0  0  0  0  0  0  0  0  0  0
   -4.8157   -2.0271   -0.2084 C   0  0  0  0  0  0  0  0  0  0  0  0
   -4.2440   -0.5189   -0.2429 C   0  0  2  0  0  0  0  0  0  0  0  0
   -3.0050   -0.6860    0.9146 C   0  0  1  0  0  0  0  0  0  0  0  0
   -1.9958   -1.4298   -0.0764 C   0  0  0  0  0  0  0  0  0  0  0  0
   -0.6749   -1.2864    0.6928 C   0  0  0  0  0  0  0  0  0  0  0  0
   -0.3935    0.0475    0.1696 C   0  0  2  0  0  0  0  0  0  0  0  0
   -0.4659    0.3787   -1.2255 C   0  0  0  0  0  0  0  0  0  0  0  0
  1  2  1  0
  2  3  1  0
  3  4  1  0
  4  5  1  0
  5  6  1  0
  6  7  1  0
  7  8  1  0
  8  9  1  0
  9 10  1  0
 10 11  2  0
 10 12  1  0
 13 12  1  6
 13 14  1  0
 14 15  1  0
 16 15  1  6
 16 17  1  0
 17 18  1  1
 18 19  1  0
 19 20  1  0
 20 21  2  0
 21 22  1  0
 22 23  2  0
 22 24  1  0
 24 25  1  0
 26 25  1  1
 26 27  1  0
 27 28  1  6
 28 29  1  0
 29 30  1  0
 30 31  1  6
 30 13  1  0
 30 16  1  0
 27 17  1  0
 26 20  1  0
M  END
>  <zinc_id>  (1) 
ZINC000008214619

>  <smiles>  (1) 
CCCCCCCCCC(=O)O[C@H]1CC[C@H]2[C@@H]3CCC4=CC(=O)CC[C@@H]4[C@H]3CC[C@]12C

$$$$
