
     RDKit          3D

  6  5  0  0  0  0  0  0  0  0999 V2000
   -1.0752    1.4176    0.2226 C   0  0  0  0  0  0  0  0  0  0  0  0
   -0.6895    0.0957   -0.7514 C   0  0  2  0  0  0  0  0  0  0  0  0
   -1.5378   -0.9110    0.1339 N   0  0  0  0  0  0  0  0  0  0  0  0
    0.7113   -0.1831   -0.0072 C   0  0  0  0  0  0  0  0  0  0  0  0
    0.8110   -0.9602    0.9061 O   0  0  0  0  0  0  0  0  0  0  0  0
    1.7802    0.5410   -0.5039 O   0  0  0  0  0  0  0  0  0  0  0  0
  2  1  1  1
  2  3  1  0
  2  4  1  0
  4  5  2  0
  4  6  1  0
M  END
>  <zinc_id>  (1) 
ZINC000004658553

>  <smiles>  (1) 
C[C@H](N)C(=O)O

$$$$
