
     RDKit          3D

 23 26  0  0  0  0  0  0  0  0999 V2000
   -5.1165    0.0176    1.6388 C   0  0  0  0  0  0  0  0  0  0  0  0
   -4.2715   -0.3612    1.4336 C   0  0  0  0  0  0  0  0  0  0  0  0
   -3.5638   -0.9579    2.2760 O   0  0  0  0  0  0  0  0  0  0  0  0
   -3.6140   -0.2977   -0.0405 C   0  0  1  0  0  0  0  0  0  0  0  0
   -3.6478    1.3657   -0.0927 C   0  0  0  0  0  0  0  0  0  0  0  0
   -2.3756    1.7230   -0.7103 C   0  0  0  0  0  0  0  0  0  0  0  0
   -1.6580    0.2989   -1.0212 C   0  0  1  0  0  0  0  0  0  0  0  0
   -0.1134    0.8025   -0.4718 C   0  0  2  0  0  0  0  0  0  0  0  0
    0.2866    1.3363   -1.9497 C   0  0  0  0  0  0  0  0  0  0  0  0
    1.7541    1.5277   -2.0155 C   0  0  0  0  0  0  0  0  0  0  0  0
    2.5306    0.6708   -1.1243 C   0  0  0  0  0  0  0  0  0  0  0  0
    3.8590    0.8276   -1.0858 C   0  0  0  0  0  0  0  0  0  0  0  0
    4.5720   -0.0617   -0.1741 C   0  0  0  0  0  0  0  0  0  0  0  0
    5.4329    0.3586    0.6749 O   0  0  0  0  0  0  0  0  0  0  0  0
    4.2419   -1.5026   -0.2847 C   0  0  0  0  0  0  0  0  0  0  0  0
    2.7472   -1.6665   -0.2727 C   0  0  0  0  0  0  0  0  0  0  0  0
    2.0020   -0.3760   -0.2317 C   0  0  1  0  0  0  0  0  0  0  0  0
    1.8952    0.1902    1.1429 C   0  0  0  0  0  0  0  0  0  0  0  0
    0.5147   -0.7359   -0.7783 C   0  0  1  0  0  0  0  0  0  0  0  0
    0.0082   -1.3685    0.6343 C   0  0  0  0  0  0  0  0  0  0  0  0
   -1.4887   -1.5407    0.5408 C   0  0  0  0  0  0  0  0  0  0  0  0
   -2.0702   -0.2434    0.4769 C   0  0  2  0  0  0  0  0  0  0  0  0
   -1.9247    0.7904    1.4351 C   0  0  0  0  0  0  0  0  0  0  0  0
  1  2  1  0
  2  3  2  0
  4  2  1  1
  4  5  1  0
  5  6  1  0
  7  6  1  1
  7  8  1  0
  8  9  1  6
  9 10  1  0
 10 11  1  0
 11 12  2  0
 12 13  1  0
 13 14  2  0
 13 15  1  0
 15 16  1  0
 16 17  1  0
 17 18  1  1
 17 19  1  0
 19 20  1  1
 20 21  1  0
 21 22  1  0
 22 23  1  1
 22  4  1  0
 22  7  1  0
 19  8  1  0
 17 11  1  0
M  END
>  <zinc_id>  (1) 
ZINC000004428529

>  <smiles>  (1) 
CC(=O)[C@H]1CC[C@H]2[C@@H]3CCC4=CC(=O)CC[C@]4(C)[C@H]3CC[C@]12C

$$$$
