
     RDKit          3D

 12 12  0  0  0  0  0  0  0  0999 V2000
    4.0596   -0.5095    0.3748 C   0  0  0  0  0  0  0  0  0  0  0  0
    2.6601   -0.7778    0.2992 O   0  0  0  0  0  0  0  0  0  0  0  0
    1.7236    0.2267    0.1056 C   0  0  0  0  0  0  0  0  0  0  0  0
    2.1579    1.3947   -0.0019 O   0  0  0  0  0  0  0  0  0  0  0  0
    0.2866   -0.0584    0.0292 C   0  0  0  0  0  0  0  0  0  0  0  0
   -0.2197   -1.3305    0.1437 C   0  0  0  0  0  0  0  0  0  0  0  0
   -1.5817   -1.5619    0.0665 C   0  0  0  0  0  0  0  0  0  0  0  0
   -2.4880   -0.5391   -0.1269 C   0  0  0  0  0  0  0  0  0  0  0  0
   -3.9533   -0.8136   -0.2069 C   0  0  0  0  0  0  0  0  0  0  0  0
   -1.9740    0.7362   -0.2412 C   0  0  0  0  0  0  0  0  0  0  0  0
   -0.5971    0.9815   -0.1646 C   0  0  0  0  0  0  0  0  0  0  0  0
   -0.0740    2.2516   -0.2775 O   0  0  0  0  0  0  0  0  0  0  0  0
  1  2  1  0
  2  3  1  0
  3  4  2  0
  3  5  1  0
  5  6  2  0
  6  7  1  0
  7  8  2  0
  8  9  1  0
  8 10  1  0
 10 11  2  0
 11 12  1  0
 11  5  1  0
M  END
>  <zinc_id>  (1) 
ZINC000000395010

>  <smiles>  (1) 
COC(=O)c1ccc(C)cc1O

$$$$
