
     RDKit          3D

 16 16  0  0  0  0  0  0  0  0999 V2000
    4.7862    0.5506    0.0572 C   0  0  0  0  0  0  0  0  0  0  0  0
    4.6836    0.4887   -0.3516 C   0  0  0  0  0  0  0  0  0  0  0  0
    3.6590   -0.3878   -1.1483 C   0  0  0  0  0  0  0  0  0  0  0  0
    2.3815    0.0328   -0.7641 N   0  0  0  0  0  0  0  0  0  0  0  0
    2.1302   -0.3764    0.7314 C   0  0  1  0  0  0  0  0  0  0  0  0
    1.8908    1.0885    1.3672 C   0  0  0  0  0  0  0  0  0  0  0  0
    0.6387   -0.7651    0.4875 C   0  0  0  0  0  0  0  0  0  0  0  0
    0.4245   -2.0019    0.3235 O   0  0  0  0  0  0  0  0  0  0  0  0
   -0.3561    0.1672    0.4427 N   0  0  0  0  0  0  0  0  0  0  0  0
   -1.7367   -0.1078    0.2064 C   0  0  0  0  0  0  0  0  0  0  0  0
   -2.2915   -1.3229    0.1943 C   0  0  0  0  0  0  0  0  0  0  0  0
   -3.6717   -1.4562   -0.0686 C   0  0  0  0  0  0  0  0  0  0  0  0
   -4.3755   -0.3007   -0.3054 C   0  0  0  0  0  0  0  0  0  0  0  0
   -3.7989    0.9103   -0.2987 C   0  0  0  0  0  0  0  0  0  0  0  0
   -2.5001    1.0386   -0.0424 C   0  0  0  0  0  0  0  0  0  0  0  0
   -1.8639    2.4422   -0.0396 C   0  0  0  0  0  0  0  0  0  0  0  0
  1  2  1  0
  2  3  1  0
  3  4  1  0
  4  5  1  0
  5  6  1  1
  5  7  1  0
  7  8  2  0
  7  9  1  0
  9 10  1  0
 10 11  2  0
 11 12  1  0
 12 13  2  0
 13 14  1  0
 14 15  2  0
 15 16  1  0
 15 10  1  0
M  END
>  <zinc_id>  (1) 
ZINC000001530816

>  <smiles>  (1) 
CCCN[C@@H](C)C(=O)Nc1ccccc1C

$$$$
