
     RDKit          3D

 28 31  0  0  0  0  0  0  0  0999 V2000
    2.0310    2.3153   -1.2622 C   0  0  0  0  0  0  0  0  0  0  0  0
    2.8715    0.9528   -1.5121 C   0  0  2  0  0  0  0  0  0  0  0  0
    1.6770    0.1377   -2.2515 C   0  0  0  0  0  0  0  0  0  0  0  0
    0.7025    0.3658   -1.0084 C   0  0  1  0  0  0  0  0  0  0  0  0
   -0.3980   -0.8482   -1.2614 C   0  0  2  0  0  0  0  0  0  0  0  0
   -1.3008   -0.1638   -2.3012 C   0  0  0  0  0  0  0  0  0  0  0  0
   -2.2473    0.8123   -2.0161 C   0  0  0  0  0  0  0  0  0  0  0  0
   -2.8834    0.5837   -0.7210 C   0  0  0  0  0  0  0  0  0  0  0  0
   -3.6697    1.5076   -0.2888 C   0  0  0  0  0  0  0  0  0  0  0  0
   -4.3161    1.3216    1.0004 C   0  0  0  0  0  0  0  0  0  0  0  0
   -5.0817    2.2525    1.3868 O   0  0  0  0  0  0  0  0  0  0  0  0
   -4.0405    0.1220    1.7180 C   0  0  0  0  0  0  0  0  0  0  0  0
   -3.2342   -0.8145    1.2574 C   0  0  0  0  0  0  0  0  0  0  0  0
   -2.5642   -0.7089   -0.0167 C   0  0  1  0  0  0  0  0  0  0  0  0
   -2.9034   -1.8705   -0.9373 C   0  0  0  0  0  0  0  0  0  0  0  0
   -1.1184   -0.5768    0.1148 C   0  0  2  0  0  0  0  0  0  0  0  0
   -0.8904    0.5995    0.7214 F   0  0  0  0  0  0  0  0  0  0  0  0
   -0.4478   -1.5837    1.1734 C   0  0  1  0  0  0  0  0  0  0  0  0
   -0.1074   -2.7201    0.2484 O   0  0  0  0  0  0  0  0  0  0  0  0
    1.0371   -0.9160    1.1574 C   0  0  0  0  0  0  0  0  0  0  0  0
    1.6074   -0.6477   -0.1057 C   0  0  1  0  0  0  0  0  0  0  0  0
    1.9916   -1.8191   -0.9677 C   0  0  0  0  0  0  0  0  0  0  0  0
    2.7137    0.3162   -0.0366 C   0  0  2  0  0  0  0  0  0  0  0  0
    2.5093    1.3077    0.8872 O   0  0  0  0  0  0  0  0  0  0  0  0
    4.0655   -0.2545    0.1094 C   0  0  0  0  0  0  0  0  0  0  0  0
    4.4542   -1.1473   -0.6102 O   0  0  0  0  0  0  0  0  0  0  0  0
    4.9946    0.2285    1.1243 C   0  0  0  0  0  0  0  0  0  0  0  0
    4.5478    1.2478    1.9440 O   0  0  0  0  0  0  0  0  0  0  0  0
  2  1  1  1
  2  3  1  0
  4  3  1  6
  4  5  1  0
  5  6  1  6
  6  7  1  0
  7  8  1  0
  8  9  2  0
  9 10  1  0
 10 11  2  0
 10 12  1  0
 12 13  2  0
 13 14  1  0
 14 15  1  6
 14 16  1  0
 16 17  1  1
 16 18  1  0
 18 19  1  6
 18 20  1  0
 20 21  1  0
 21 22  1  6
 21 23  1  0
 23 24  1  1
 23 25  1  0
 25 26  2  0
 25 27  1  0
 27 28  1  0
 23  2  1  0
 21  4  1  0
 16  5  1  0
 14  8  1  0
M  END
>  <zinc_id>  (1) 
ZINC000003875332

>  <smiles>  (1) 
C[C@@H]1C[C@H]2[C@@H]3CCC4=CC(=O)C=C[C@]4(C)[C@@]3(F)[C@@H](O)C[C@]2(C)[C@@]1(O)C(=O)CO

$$$$
