
     RDKit          3D

 32 32  0  0  0  0  0  0  0  0999 V2000
   -2.5248   -2.0046    2.5559 C   0  0  0  0  0  0  0  0  0  0  0  0
   -2.4736   -2.0636    2.4444 C   0  0  0  0  0  0  0  0  0  0  0  0
   -3.1445   -2.9990    2.9583 O   0  0  0  0  0  0  0  0  0  0  0  0
   -1.7207   -2.1559    1.2351 N   0  0  0  0  0  0  0  0  0  0  0  0
   -1.6722   -3.4071    0.4882 C   0  0  0  0  0  0  0  0  0  0  0  0
   -2.9241   -3.2978   -0.5357 C   0  0  2  0  0  0  0  0  0  0  0  0
   -2.7231   -4.7053   -1.1144 O   0  0  0  0  0  0  0  0  0  0  0  0
   -2.0273   -2.6561   -1.7797 C   0  0  0  0  0  0  0  0  0  0  0  0
   -0.8081   -3.2311   -1.7723 O   0  0  0  0  0  0  0  0  0  0  0  0
   -1.0114   -1.0124    0.7976 C   0  0  0  0  0  0  0  0  0  0  0  0
   -1.5834    0.1609    0.3782 C   0  0  0  0  0  0  0  0  0  0  0  0
   -3.7053    0.3084    0.3734 I   0  0  0  0  0  0  0  0  0  0  0  0
   -0.8519    1.2767   -0.0411 C   0  0  0  0  0  0  0  0  0  0  0  0
   -1.5722    2.4727   -0.4693 C   0  0  0  0  0  0  0  0  0  0  0  0
   -0.8855    3.4625   -0.8240 O   0  0  0  0  0  0  0  0  0  0  0  0
   -2.9722    2.5674   -0.5046 N   0  0  0  0  0  0  0  0  0  0  0  0
   -3.6910    3.7529   -0.9325 C   0  0  0  0  0  0  0  0  0  0  0  0
   -3.3521    4.1243   -2.3573 C   0  0  0  0  0  0  0  0  0  0  0  0
   -4.0020    5.2340   -2.8102 O   0  0  0  0  0  0  0  0  0  0  0  0
    0.5184    1.2063   -0.0370 C   0  0  0  0  0  0  0  0  0  0  0  0
    1.5980    2.9019   -0.6717 I   0  0  0  0  0  0  0  0  0  0  0  0
    1.1302    0.0512    0.3754 C   0  0  0  0  0  0  0  0  0  0  0  0
    2.6047   -0.0077    0.3691 C   0  0  0  0  0  0  0  0  0  0  0  0
    3.0926   -1.0915    0.7675 O   0  0  0  0  0  0  0  0  0  0  0  0
    3.3946    1.0260   -0.0348 N   0  0  0  0  0  0  0  0  0  0  0  0
    4.6957    1.3906   -0.2078 C   0  0  0  0  0  0  0  0  0  0  0  0
    5.4039    0.4997   -1.3172 C   0  0  2  0  0  0  0  0  0  0  0  0
    5.2980   -0.8051   -0.6334 O   0  0  0  0  0  0  0  0  0  0  0  0
    6.9291    0.7978   -0.7958 C   0  0  0  0  0  0  0  0  0  0  0  0
    7.2522    2.0324   -1.3385 O   0  0  0  0  0  0  0  0  0  0  0  0
    0.3953   -1.0266    0.7811 C   0  0  0  0  0  0  0  0  0  0  0  0
    1.3326   -2.8019    1.4142 I   0  0  0  0  0  0  0  0  0  0  0  0
  1  2  1  0
  2  3  2  0
  2  4  1  0
  4  5  1  0
  5  6  1  0
  6  7  1  6
  6  8  1  0
  8  9  1  0
  4 10  1  0
 10 11  2  0
 11 12  1  0
 11 13  1  0
 13 14  1  0
 14 15  2  0
 14 16  1  0
 16 17  1  0
 17 18  1  0
 18 19  1  0
 13 20  2  0
 20 21  1  0
 20 22  1  0
 22 23  1  0
 23 24  2  0
 23 25  1  0
 25 26  1  0
 26 27  1  0
 27 28  1  1
 27 29  1  0
 29 30  1  0
 22 31  2  0
 31 32  1  0
 31 10  1  0
M  END
>  <zinc_id>  (1) 
ZINC000008214418

>  <smiles>  (1) 
CC(=O)N(C[C@H](O)CO)c1c(I)c(C(=O)NCCO)c(I)c(C(=O)NC[C@H](O)CO)c1I

$$$$
