
     RDKit          3D

 13 13  0  0  0  0  0  0  0  0999 V2000
    0.7508    2.8427   -0.2741 C   0  0  0  0  0  0  0  0  0  0  0  0
   -0.1542    1.8751   -0.0658 C   0  0  0  0  0  0  0  0  0  0  0  0
   -1.3919    1.9819    0.4204 N   0  0  0  0  0  0  0  0  0  0  0  0
   -1.9913    0.7907    0.4792 C   0  0  0  0  0  0  0  0  0  0  0  0
   -1.0457   -0.1474   -0.0164 C   0  0  0  0  0  0  0  0  0  0  0  0
   -1.3756   -1.5116   -0.1486 N   0  0  0  0  0  0  0  0  0  0  0  0
   -0.6252   -2.3151   -0.6693 O   0  0  0  0  0  0  0  0  0  0  0  0
   -2.6033   -1.9518    0.2612 O   0  0  0  0  0  0  0  0  0  0  0  0
    0.0599    0.5484   -0.3338 N   0  0  0  0  0  0  0  0  0  0  0  0
    1.2410   -0.0233   -0.9219 C   0  0  0  0  0  0  0  0  0  0  0  0
    2.4001    0.0137    0.2523 C   0  0  1  0  0  0  0  0  0  0  0  0
    1.5999   -0.8804    1.3616 C   0  0  0  0  0  0  0  0  0  0  0  0
    3.1354   -1.2227   -0.3449 O   0  0  0  0  0  0  0  0  0  0  0  0
  1  2  1  0
  2  3  2  0
  3  4  1  0
  4  5  2  0
  5  6  1  0
  6  7  2  0
  6  8  1  0
  5  9  1  0
  9 10  1  0
 10 11  1  0
 11 12  1  1
 11 13  1  0
  9  2  1  0
M  CHG  2   6   1   8  -1
M  END
>  <zinc_id>  (1) 
ZINC000000000711

>  <smiles>  (1) 
Cc1ncc([N+](=O)[O-])n1C[C@@H](C)O

$$$$
