
     RDKit          3D

 35 37  0  0  0  0  0  0  0  0999 V2000
   -5.5389   -2.1040    2.7277 C   0  0  0  0  0  0  0  0  0  0  0  0
   -4.5842   -2.4346    1.4610 C   0  0  2  0  0  0  0  0  0  0  0  0
   -3.2559   -1.8054    2.1513 C   0  0  0  0  0  0  0  0  0  0  0  0
   -2.3561   -1.8727    0.9364 C   0  0  0  0  0  0  0  0  0  0  0  0
   -2.7527   -1.1452   -0.1538 N   0  0  0  0  0  0  0  0  0  0  0  0
   -1.9274   -0.2779   -0.9064 C   0  0  0  0  0  0  0  0  0  0  0  0
   -2.2887    0.3630   -1.8719 O   0  0  0  0  0  0  0  0  0  0  0  0
   -0.4505   -0.2515   -0.3172 C   0  0  2  0  0  0  0  0  0  0  0  0
   -0.7307    0.8235    0.8718 C   0  0  0  0  0  0  0  0  0  0  0  0
   -1.2002    2.1013    0.2973 C   0  0  0  0  0  0  0  0  0  0  0  0
   -1.4431    3.0507    1.4161 C   0  0  0  0  0  0  0  0  0  0  0  0
   -1.9042    4.3326    0.9834 N   0  0  0  0  0  0  0  0  0  0  0  0
   -2.1619    5.3034    1.9909 C   0  0  0  0  0  0  0  0  0  0  0  0
   -2.5630    4.8514    3.1290 N   0  0  0  0  0  0  0  0  0  0  0  0
   -1.9933    6.7087    1.7762 N   0  0  0  0  0  0  0  0  0  0  0  0
    0.1152    0.7590   -1.3606 N   0  0  0  0  0  0  0  0  0  0  0  0
    1.7507    0.9565   -0.9216 S   0  0  0  0  0  0  0  0  0  0  0  0
    2.3921    1.9357   -1.8656 O   0  0  0  0  0  0  0  0  0  0  0  0
    1.9245    1.5161    0.4627 O   0  0  0  0  0  0  0  0  0  0  0  0
    2.6622   -0.5241   -1.0114 C   0  0  0  0  0  0  0  0  0  0  0  0
    2.0995   -1.7275   -1.4133 C   0  0  0  0  0  0  0  0  0  0  0  0
    2.8876   -2.8586   -1.4716 C   0  0  0  0  0  0  0  0  0  0  0  0
    4.2444   -2.8094   -1.1319 C   0  0  0  0  0  0  0  0  0  0  0  0
    4.8052   -1.6332   -0.7366 C   0  0  0  0  0  0  0  0  0  0  0  0
    3.9980   -0.5013   -0.6820 C   0  0  0  0  0  0  0  0  0  0  0  0
    4.7438    0.6298   -0.2626 N   0  0  0  0  0  0  0  0  0  0  0  0
    5.5235    0.5233    0.8964 C   0  0  0  0  0  0  0  0  0  0  0  0
    6.4384   -0.7763    0.9940 C   0  0  2  0  0  0  0  0  0  0  0  0
    7.8128   -0.0359    0.4680 C   0  0  0  0  0  0  0  0  0  0  0  0
    6.1819   -1.5299   -0.3971 C   0  0  0  0  0  0  0  0  0  0  0  0
   -4.1975   -1.1622   -0.7409 C   0  0  1  0  0  0  0  0  0  0  0  0
   -4.3470   -2.7160   -0.9964 C   0  0  0  0  0  0  0  0  0  0  0  0
   -5.4675   -2.9633   -1.4811 O   0  0  0  0  0  0  0  0  0  0  0  0
   -3.4453   -3.6439   -0.7479 O   0  0  0  0  0  0  0  0  0  0  0  0
   -4.9717   -1.0821    0.6839 C   0  0  0  0  0  0  0  0  0  0  0  0
  2  1  1  1
  2  3  1  0
  3  4  1  0
  4  5  1  0
  5  6  1  0
  6  7  2  0
  6  8  1  0
  8  9  1  1
  9 10  1  0
 10 11  1  0
 11 12  1  0
 12 13  1  0
 13 14  2  0
 13 15  1  0
  8 16  1  0
 16 17  1  0
 17 18  2  0
 17 19  2  0
 17 20  1  0
 20 21  2  0
 21 22  1  0
 22 23  2  0
 23 24  1  0
 24 25  2  0
 25 26  1  0
 26 27  1  0
 27 28  1  0
 28 29  1  6
 28 30  1  0
  5 31  1  0
 31 32  1  1
 32 33  2  0
 32 34  1  0
 31 35  1  0
 35  2  1  0
 25 20  1  0
 30 24  1  0
M  END
>  <zinc_id>  (1) 
ZINC000003807172

>  <smiles>  (1) 
C[C@H]1CNc2c(cccc2S(=O)(=O)N[C@@H](CCCNC(=N)N)C(=O)N2CC[C@@H](C)C[C@@H]2C(=O)O)C1

$$$$
