
     RDKit          3D

 28 30  0  0  0  0  0  0  0  0999 V2000
   -6.8591    0.7529   -2.4540 C   0  0  0  0  0  0  0  0  0  0  0  0
   -6.6352    0.9277   -1.5332 O   0  0  0  0  0  0  0  0  0  0  0  0
   -5.4401    0.7928   -0.8202 C   0  0  0  0  0  0  0  0  0  0  0  0
   -4.2745    0.3348   -1.4096 C   0  0  0  0  0  0  0  0  0  0  0  0
   -3.1239    0.2200   -0.6640 C   0  0  0  0  0  0  0  0  0  0  0  0
   -1.9757   -0.2218   -1.2104 N   0  0  0  0  0  0  0  0  0  0  0  0
   -0.8159   -0.3479   -0.5030 C   0  0  0  0  0  0  0  0  0  0  0  0
    0.3687   -0.8183   -1.1228 N   0  0  0  0  0  0  0  0  0  0  0  0
    0.3759   -1.1824   -2.5186 C   0  0  0  0  0  0  0  0  0  0  0  0
    1.5889   -0.9427   -0.3790 C   0  0  0  0  0  0  0  0  0  0  0  0
    2.0422   -2.3604   -0.1660 C   0  0  0  0  0  0  0  0  0  0  0  0
    3.3453   -2.2838    0.6318 C   0  0  0  0  0  0  0  0  0  0  0  0
    4.3442   -1.5345   -0.1153 N   0  0  0  0  0  0  0  0  0  0  0  0
    5.6343   -1.3129    0.3904 C   0  0  0  0  0  0  0  0  0  0  0  0
    5.9862   -1.7349    1.4799 O   0  0  0  0  0  0  0  0  0  0  0  0
    6.6609   -0.4934   -0.4764 C   0  0  1  0  0  0  0  0  0  0  0  0
    6.1820    0.9854    0.1181 C   0  0  0  0  0  0  0  0  0  0  0  0
    7.5147    1.6656   -0.1379 C   0  0  0  0  0  0  0  0  0  0  0  0
    8.5437    0.5603    0.0725 C   0  0  0  0  0  0  0  0  0  0  0  0
    7.8134   -0.5545    0.4882 O   0  0  0  0  0  0  0  0  0  0  0  0
   -0.8699   -0.0034    0.7959 N   0  0  0  0  0  0  0  0  0  0  0  0
   -1.9925    0.4460    1.3989 C   0  0  0  0  0  0  0  0  0  0  0  0
   -2.0563    0.8096    2.7658 N   0  0  0  0  0  0  0  0  0  0  0  0
   -3.1487    0.5617    0.6549 C   0  0  0  0  0  0  0  0  0  0  0  0
   -4.3233    1.0252    1.2571 C   0  0  0  0  0  0  0  0  0  0  0  0
   -5.4808    1.1425    0.5130 C   0  0  0  0  0  0  0  0  0  0  0  0
   -6.6751    1.6038    1.0865 O   0  0  0  0  0  0  0  0  0  0  0  0
   -6.7295    1.9625    2.4410 C   0  0  0  0  0  0  0  0  0  0  0  0
  1  2  1  0
  2  3  1  0
  3  4  2  0
  4  5  1  0
  5  6  2  0
  6  7  1  0
  7  8  1  0
  8  9  1  0
  8 10  1  0
 10 11  1  0
 11 12  1  0
 12 13  1  0
 13 14  1  0
 14 15  2  0
 16 14  1  1
 16 17  1  0
 17 18  1  0
 18 19  1  0
 19 20  1  0
  7 21  2  0
 21 22  1  0
 22 23  1  0
 22 24  2  0
 24 25  1  0
 25 26  2  0
 26 27  1  0
 27 28  1  0
 26  3  1  0
 24  5  1  0
 20 16  1  0
M  END
>  <zinc_id>  (1) 
ZINC000001843099

>  <smiles>  (1) 
COc1cc2nc(N(C)CCCNC(=O)[C@H]3CCCO3)nc(N)c2cc1OC

$$$$
