
     RDKit          3D

 21 22  0  0  0  0  0  0  0  0999 V2000
    5.1228   -2.3385    0.0411 C   0  0  0  0  0  0  0  0  0  0  0  0
    5.0409   -1.3453    0.3948 N   0  0  0  0  0  0  0  0  0  0  0  0
    6.0371   -0.3244    0.1580 C   0  0  0  0  0  0  0  0  0  0  0  0
    3.8741   -0.8131    1.0569 C   0  0  0  0  0  0  0  0  0  0  0  0
    2.7575   -0.7217    0.0668 C   0  0  0  0  0  0  0  0  0  0  0  0
    1.6197   -0.2010    0.7229 O   0  0  0  0  0  0  0  0  0  0  0  0
    0.4293   -0.0042    0.0240 C   0  0  0  0  0  0  0  0  0  0  0  0
    0.3512   -0.2711   -1.1441 O   0  0  0  0  0  0  0  0  0  0  0  0
   -0.7888    0.5882    0.8753 C   0  0  2  0  0  0  0  0  0  0  0  0
   -1.8269   -0.5714    0.7116 C   0  0  0  0  0  0  0  0  0  0  0  0
   -1.4582   -1.7232    1.3335 C   0  0  0  0  0  0  0  0  0  0  0  0
   -2.3166   -2.8257    1.2709 C   0  0  0  0  0  0  0  0  0  0  0  0
   -3.5089   -2.6963    0.5743 C   0  0  0  0  0  0  0  0  0  0  0  0
   -3.8390   -1.5216   -0.0359 C   0  0  0  0  0  0  0  0  0  0  0  0
   -2.9728   -0.4718    0.0513 C   0  0  0  0  0  0  0  0  0  0  0  0
   -1.3191    1.6162   -0.2869 C   0  0  0  0  0  0  0  0  0  0  0  0
   -1.6359    0.9422   -1.4079 O   0  0  0  0  0  0  0  0  0  0  0  0
   -0.2406    2.6541   -0.3999 C   0  0  0  0  0  0  0  0  0  0  0  0
   -0.6777    3.8450    0.4347 C   0  0  0  0  0  0  0  0  0  0  0  0
   -2.1719    3.8210    0.3278 C   0  0  0  0  0  0  0  0  0  0  0  0
   -2.4763    2.3625    0.3422 C   0  0  0  0  0  0  0  0  0  0  0  0
  1  2  1  0
  2  3  1  0
  2  4  1  0
  4  5  1  0
  5  6  1  0
  6  7  1  0
  7  8  2  0
  9  7  1  0
  9 10  1  0
 10 11  2  0
 11 12  1  0
 12 13  2  0
 13 14  1  0
 14 15  2  0
  9 16  1  6
 16 17  1  0
 16 18  1  0
 18 19  1  0
 19 20  1  0
 20 21  1  0
 15 10  1  0
 21 16  1  0
M  END
>  <zinc_id>  (1) 
ZINC000000000196

>  <smiles>  (1) 
CN(C)CCOC(=O)[C@H](c1ccccc1)C1(O)CCCC1

$$$$
