
     RDKit          3D

 16 17  0  0  0  0  0  0  0  0999 V2000
   -2.3114    2.5950   -1.1044 C   0  0  0  0  0  0  0  0  0  0  0  0
   -2.0318    1.3526   -0.4076 C   0  0  0  0  0  0  0  0  0  0  0  0
   -0.6996    1.0605   -0.0734 C   0  0  0  0  0  0  0  0  0  0  0  0
   -0.3409   -0.0246    0.5506 N   0  0  0  0  0  0  0  0  0  0  0  0
    1.1243   -0.3476    0.9190 C   0  0  1  0  0  0  0  0  0  0  0  0
    1.1954   -1.7497    0.0413 C   0  0  0  0  0  0  0  0  0  0  0  0
    2.3921   -1.7548   -0.4371 C   0  0  0  0  0  0  0  0  0  0  0  0
    3.0716   -0.3714    0.1309 C   0  0  1  0  0  0  0  0  0  0  0  0
    3.8142   -0.0348   -1.3378 C   0  0  0  0  0  0  0  0  0  0  0  0
    3.8842    1.3670   -1.3006 O   0  0  0  0  0  0  0  0  0  0  0  0
    1.8127    0.4421   -0.2327 O   0  0  0  0  0  0  0  0  0  0  0  0
   -1.2532   -0.9165    0.9012 C   0  0  0  0  0  0  0  0  0  0  0  0
   -0.9471   -1.9810    1.5072 O   0  0  0  0  0  0  0  0  0  0  0  0
   -2.5865   -0.6942    0.6040 N   0  0  0  0  0  0  0  0  0  0  0  0
   -2.9567    0.4261   -0.0403 C   0  0  0  0  0  0  0  0  0  0  0  0
   -4.1673    0.6314   -0.3120 O   0  0  0  0  0  0  0  0  0  0  0  0
  1  2  1  0
  2  3  2  0
  3  4  1  0
  5  4  1  6
  5  6  1  0
  6  7  2  0
  7  8  1  0
  8  9  1  6
  9 10  1  0
  8 11  1  0
  4 12  1  0
 12 13  2  0
 12 14  1  0
 14 15  1  0
 15 16  2  0
 15  2  1  0
 11  5  1  0
M  END
>  <zinc_id>  (1) 
ZINC000000137884

>  <smiles>  (1) 
Cc1cn([C@H]2C=C[C@@H](CO)O2)c(=O)[nH]c1=O

$$$$
