
     RDKit          3D

 21 21  0  0  0  0  0  0  0  0999 V2000
    3.2695    2.7916    0.1255 C   0  0  0  0  0  0  0  0  0  0  0  0
    4.3586    1.8353    0.2769 N   0  0  0  0  0  0  0  0  0  0  0  0
    4.1728    0.4930   -0.0821 C   0  0  0  0  0  0  0  0  0  0  0  0
    5.1802   -0.3714    0.1005 C   0  0  0  0  0  0  0  0  0  0  0  0
    5.0484   -1.7377   -0.2439 N   0  0  0  0  0  0  0  0  0  0  0  0
    4.4878   -2.5145    0.5316 O   0  0  0  0  0  0  0  0  0  0  0  0
    5.5532   -2.1584   -1.4405 O   0  0  0  0  0  0  0  0  0  0  0  0
    2.9862   -0.0233   -0.6297 N   0  0  0  0  0  0  0  0  0  0  0  0
    1.9179   -0.4844    0.2359 C   0  0  0  0  0  0  0  0  0  0  0  0
    0.7391   -1.0001   -0.5510 C   0  0  0  0  0  0  0  0  0  0  0  0
    0.0281    0.2529   -1.6232 S   0  0  0  0  0  0  0  0  0  0  0  0
   -0.7272    1.6161   -0.7103 C   0  0  0  0  0  0  0  0  0  0  0  0
   -1.9373    1.1370    0.0647 C   0  0  0  0  0  0  0  0  0  0  0  0
   -1.7754    0.6797    1.3469 C   0  0  0  0  0  0  0  0  0  0  0  0
   -3.4063    0.2737    1.7579 S   0  0  0  0  0  0  0  0  0  0  0  0
   -4.1471    0.7134    0.2854 C   0  0  0  0  0  0  0  0  0  0  0  0
   -5.6049    0.6096   -0.0329 C   0  0  0  0  0  0  0  0  0  0  0  0
   -5.9379   -0.6597   -0.6251 N   0  0  0  0  0  0  0  0  0  0  0  0
   -5.6340   -1.7888    0.2191 C   0  0  0  0  0  0  0  0  0  0  0  0
   -5.4371   -0.8023   -1.9714 C   0  0  0  0  0  0  0  0  0  0  0  0
   -3.1345    1.1385   -0.4301 N   0  0  0  0  0  0  0  0  0  0  0  0
  1  2  1  0
  2  3  1  0
  3  4  2  0
  4  5  1  0
  5  6  2  0
  5  7  1  0
  3  8  1  0
  8  9  1  0
  9 10  1  0
 10 11  1  0
 11 12  1  0
 12 13  1  0
 13 14  2  0
 14 15  1  0
 15 16  1  0
 16 17  1  0
 17 18  1  0
 18 19  1  0
 18 20  1  0
 16 21  2  0
 21 13  1  0
M  CHG  2   5   1   7  -1
M  END
>  <zinc_id>  (1) 
ZINC000001530737

>  <smiles>  (1) 
CN/C(=C/[N+](=O)[O-])NCCSCc1csc(CN(C)C)n1

$$$$
