
     RDKit          3D

 30 31  0  0  0  0  0  0  0  0999 V2000
   -6.9271   -3.1111   -0.4695 O   0  0  0  0  0  0  0  0  0  0  0  0
   -7.8442   -2.2996   -0.7339 C   0  0  0  0  0  0  0  0  0  0  0  0
   -7.4304   -0.8917   -0.4801 C   0  0  0  0  0  0  0  0  0  0  0  0
   -6.1637   -0.5894   -0.0073 C   0  0  0  0  0  0  0  0  0  0  0  0
   -5.7847    0.6751    0.2234 C   0  0  0  0  0  0  0  0  0  0  0  0
   -4.3176    0.9571    0.7774 C   0  0  2  0  0  0  0  0  0  0  0  0
   -4.0193    2.1124   -0.1712 O   0  0  0  0  0  0  0  0  0  0  0  0
   -3.5433   -0.1742   -0.1420 C   0  0  0  0  0  0  0  0  0  0  0  0
   -2.1744    0.2059   -0.2137 N   0  0  0  0  0  0  0  0  0  0  0  0
   -1.8907    1.3525   -0.9679 C   0  0  0  0  0  0  0  0  0  0  0  0
   -0.4906    1.7858   -1.0773 C   0  0  0  0  0  0  0  0  0  0  0  0
    0.2134    2.1212    0.1814 C   0  0  0  0  0  0  0  0  0  0  0  0
    1.6296    2.5417   -0.1266 C   0  0  0  0  0  0  0  0  0  0  0  0
    2.4261    1.4717   -0.8203 C   0  0  0  0  0  0  0  0  0  0  0  0
    2.5590    0.2046   -0.0389 C   0  0  0  0  0  0  0  0  0  0  0  0
    3.1878    0.4212    1.1743 O   0  0  0  0  0  0  0  0  0  0  0  0
    3.3183   -0.7357    1.9097 C   0  0  0  0  0  0  0  0  0  0  0  0
    4.1509   -1.7040    1.0806 C   0  0  0  0  0  0  0  0  0  0  0  0
    5.4925   -1.0616    0.8266 C   0  0  0  0  0  0  0  0  0  0  0  0
    6.3603   -1.9683    0.0122 C   0  0  0  0  0  0  0  0  0  0  0  0
    7.6845   -1.3402   -0.2400 C   0  0  0  0  0  0  0  0  0  0  0  0
    8.7145   -1.5523    0.6531 C   0  0  0  0  0  0  0  0  0  0  0  0
    9.9296   -0.9775    0.4265 C   0  0  0  0  0  0  0  0  0  0  0  0
   10.1650   -0.1928   -0.6618 C   0  0  0  0  0  0  0  0  0  0  0  0
    9.1474    0.0262   -1.5591 C   0  0  0  0  0  0  0  0  0  0  0  0
    7.9111   -0.5582   -1.3295 C   0  0  0  0  0  0  0  0  0  0  0  0
   -6.5900    1.7313    0.0176 C   0  0  0  0  0  0  0  0  0  0  0  0
   -7.8838    1.4827   -0.4607 C   0  0  0  0  0  0  0  0  0  0  0  0
   -8.2792    0.1801   -0.7001 C   0  0  0  0  0  0  0  0  0  0  0  0
   -9.5512   -0.1129   -1.1740 O   0  0  0  0  0  0  0  0  0  0  0  0
  1  2  1  0
  2  3  1  0
  3  4  2  0
  4  5  1  0
  5  6  1  0
  6  7  1  6
  6  8  1  0
  8  9  1  0
  9 10  1  0
 10 11  1  0
 11 12  1  0
 12 13  1  0
 13 14  1  0
 14 15  1  0
 15 16  1  0
 16 17  1  0
 17 18  1  0
 18 19  1  0
 19 20  1  0
 20 21  1  0
 21 22  2  0
 22 23  1  0
 23 24  2  0
 24 25  1  0
 25 26  2  0
  5 27  2  0
 27 28  1  0
 28 29  2  0
 29 30  1  0
 29  3  1  0
 26 21  1  0
M  END
>  <zinc_id>  (1) 
ZINC000003785268

>  <smiles>  (1) 
OCc1cc([C@H](O)CNCCCCCCOCCCCc2ccccc2)ccc1O

$$$$
