
     RDKit          3D

 18 19  0  0  0  0  0  0  0  0999 V2000
    6.0612    0.1354    0.0696 C   0  0  0  0  0  0  0  0  0  0  0  0
    5.1208    0.7554   -0.8826 C   0  0  0  0  0  0  0  0  0  0  0  0
    4.9829   -0.1874   -2.1020 C   0  0  0  0  0  0  0  0  0  0  0  0
    3.8732    0.9059   -0.1901 N   0  0  0  0  0  0  0  0  0  0  0  0
    3.3188   -0.3698    0.1445 C   0  0  0  0  0  0  0  0  0  0  0  0
    2.0570   -0.0413    1.1548 C   0  0  2  0  0  0  0  0  0  0  0  0
    1.6584   -1.5008    1.2936 O   0  0  0  0  0  0  0  0  0  0  0  0
    0.9648    0.2687   -0.0376 C   0  0  0  0  0  0  0  0  0  0  0  0
   -0.2827   -0.0218    0.5623 O   0  0  0  0  0  0  0  0  0  0  0  0
   -1.4529    0.1439   -0.1057 C   0  0  0  0  0  0  0  0  0  0  0  0
   -1.4433    0.6272   -1.4056 C   0  0  0  0  0  0  0  0  0  0  0  0
   -2.6258    0.7911   -2.0453 C   0  0  0  0  0  0  0  0  0  0  0  0
   -3.8324    0.4817   -1.4202 C   0  0  0  0  0  0  0  0  0  0  0  0
   -3.8534   -0.0019   -0.1233 C   0  0  0  0  0  0  0  0  0  0  0  0
   -4.7952   -0.3827    0.7426 N   0  0  0  0  0  0  0  0  0  0  0  0
   -4.2473   -0.7783    1.9007 C   0  0  0  0  0  0  0  0  0  0  0  0
   -2.8567   -0.6595    1.8144 C   0  0  0  0  0  0  0  0  0  0  0  0
   -2.6476   -0.1659    0.5241 C   0  0  0  0  0  0  0  0  0  0  0  0
  1  2  1  0
  2  3  1  0
  2  4  1  0
  4  5  1  0
  5  6  1  0
  6  7  1  6
  6  8  1  0
  8  9  1  0
  9 10  1  0
 10 11  2  0
 11 12  1  0
 12 13  2  0
 13 14  1  0
 14 15  1  0
 15 16  1  0
 16 17  2  0
 17 18  1  0
 18 10  1  0
 18 14  2  0
M  END
>  <zinc_id>  (1) 
ZINC000000056645

>  <smiles>  (1) 
CC(C)NC[C@H](O)COc1cccc2[nH]ccc12

$$$$
