
     RDKit          3D

 30 33  0  0  0  0  0  0  0  0999 V2000
    6.2225    0.6864   -2.8576 C   0  0  0  0  0  0  0  0  0  0  0  0
    6.2667    0.7013   -2.3816 O   0  0  0  0  0  0  0  0  0  0  0  0
    6.5063    0.8148   -0.9923 C   0  0  0  0  0  0  0  0  0  0  0  0
    7.6210    1.5111   -0.6111 C   0  0  0  0  0  0  0  0  0  0  0  0
    7.9178    1.6624    0.7177 C   0  0  0  0  0  0  0  0  0  0  0  0
    7.0822    1.1050    1.6801 C   0  0  0  0  0  0  0  0  0  0  0  0
    5.9630    0.4061    1.2709 C   0  0  0  0  0  0  0  0  0  0  0  0
    5.6575    0.2504   -0.0662 C   0  0  0  0  0  0  0  0  0  0  0  0
    4.5540   -0.4325   -0.5237 O   0  0  0  0  0  0  0  0  0  0  0  0
    3.6126   -1.0396    0.3742 C   0  0  0  0  0  0  0  0  0  0  0  0
    2.5061   -1.6965   -0.4650 C   0  0  0  0  0  0  0  0  0  0  0  0
    1.9138   -0.6040   -1.2466 N   0  0  0  0  0  0  0  0  0  0  0  0
    0.8218   -1.0874   -2.0264 C   0  0  0  0  0  0  0  0  0  0  0  0
   -0.3581   -1.4400   -0.8737 C   0  0  1  0  0  0  0  0  0  0  0  0
   -0.3435    0.0435   -0.4147 O   0  0  0  0  0  0  0  0  0  0  0  0
   -1.5692   -1.1323   -1.9806 C   0  0  0  0  0  0  0  0  0  0  0  0
   -2.5918   -0.6494   -1.1685 O   0  0  0  0  0  0  0  0  0  0  0  0
   -3.2344   -1.2688   -0.1363 C   0  0  0  0  0  0  0  0  0  0  0  0
   -2.9465   -2.5558    0.2900 C   0  0  0  0  0  0  0  0  0  0  0  0
   -3.6607   -3.0697    1.3390 C   0  0  0  0  0  0  0  0  0  0  0  0
   -4.6530   -2.3334    1.9712 C   0  0  0  0  0  0  0  0  0  0  0  0
   -4.9496   -1.0528    1.5576 C   0  0  0  0  0  0  0  0  0  0  0  0
   -5.8444   -0.1059    1.9661 N   0  0  0  0  0  0  0  0  0  0  0  0
   -5.7135    0.9940    1.2015 C   0  0  0  0  0  0  0  0  0  0  0  0
   -6.3727    2.2003    1.2121 C   0  0  0  0  0  0  0  0  0  0  0  0
   -6.0467    3.1823    0.3069 C   0  0  0  0  0  0  0  0  0  0  0  0
   -5.0368    2.9554   -0.6328 C   0  0  0  0  0  0  0  0  0  0  0  0
   -4.3769    1.7296   -0.6328 C   0  0  0  0  0  0  0  0  0  0  0  0
   -4.7097    0.7568    0.2739 C   0  0  0  0  0  0  0  0  0  0  0  0
   -4.2378   -0.5313    0.5073 C   0  0  0  0  0  0  0  0  0  0  0  0
  1  2  1  0
  2  3  1  0
  3  4  2  0
  4  5  1  0
  5  6  2  0
  6  7  1  0
  7  8  2  0
  8  9  1  0
  9 10  1  0
 10 11  1  0
 11 12  1  0
 12 13  1  0
 13 14  1  0
 14 15  1  1
 14 16  1  0
 16 17  1  0
 17 18  1  0
 18 19  2  0
 19 20  1  0
 20 21  2  0
 21 22  1  0
 22 23  1  0
 23 24  1  0
 24 25  2  0
 25 26  1  0
 26 27  2  0
 27 28  1  0
 28 29  2  0
 29 30  1  0
  8  3  1  0
 30 18  1  0
 30 22  2  0
 29 24  1  0
M  END
>  <zinc_id>  (1) 
ZINC000001530580

>  <smiles>  (1) 
COc1ccccc1OCCNC[C@@H](O)COc1cccc2[nH]c3ccccc3c12

$$$$
