
     RDKit          3D

  8  8  0  0  0  0  0  0  0  0999 V2000
    1.6733    1.1152    0.5816 O   0  0  0  0  0  0  0  0  0  0  0  0
    1.3816    0.2311   -0.0274 C   0  0  0  0  0  0  0  0  0  0  0  0
    2.2340   -0.8727   -0.1156 O   0  0  0  0  0  0  0  0  0  0  0  0
   -0.0510    0.1985   -0.7922 C   0  0  2  0  0  0  0  0  0  0  0  0
   -0.8016    1.0278    0.4770 C   0  0  0  0  0  0  0  0  0  0  0  0
   -2.0998    0.3795    0.2452 C   0  0  0  0  0  0  0  0  0  0  0  0
   -1.8531   -0.9504   -0.3807 C   0  0  0  0  0  0  0  0  0  0  0  0
   -0.4833   -1.1290    0.0120 N   0  0  0  0  0  0  0  0  0  0  0  0
  1  2  2  0
  2  3  1  0
  4  2  1  1
  4  5  1  0
  5  6  1  0
  6  7  1  0
  7  8  1  0
  8  4  1  0
M  END
>  <zinc_id>  (1) 
ZINC000000895360

>  <smiles>  (1) 
O=C(O)[C@@H]1CCCN1

$$$$
