
     RDKit          3D

 37 41  0  0  0  0  0  0  0  0999 V2000
    1.0846   -0.5926    1.6042 C   0  0  0  0  0  0  0  0  0  0  0  0
    1.1252    0.0603    0.3823 C   0  0  2  0  0  0  0  0  0  0  0  0
    1.1449   -0.7224   -0.8432 C   0  0  0  0  0  0  0  0  0  0  0  0
    2.3785   -1.6193   -0.5971 C   0  0  0  0  0  0  0  0  0  0  0  0
    3.5010   -0.5072   -0.9184 C   0  0  1  0  0  0  0  0  0  0  0  0
    3.5441    0.1374    0.6203 C   0  0  1  0  0  0  0  0  0  0  0  0
    4.6637    1.2271    0.1948 C   0  0  0  0  0  0  0  0  0  0  0  0
    5.9386    0.5656   -0.1657 C   0  0  0  0  0  0  0  0  0  0  0  0
    5.7040   -0.3218   -1.5127 C   0  0  1  0  0  0  0  0  0  0  0  0
    7.0089   -1.1660   -1.3858 N   0  0  0  0  0  0  0  0  0  0  0  0
    6.9693   -2.3476   -2.1779 C   0  0  0  0  0  0  0  0  0  0  0  0
    7.9819   -2.7454   -2.8461 O   0  0  0  0  0  0  0  0  0  0  0  0
    5.7199   -3.0457   -2.1671 C   0  0  0  0  0  0  0  0  0  0  0  0
    4.7165   -2.6212   -1.4882 C   0  0  0  0  0  0  0  0  0  0  0  0
    4.7871   -1.4408   -0.7162 C   0  0  2  0  0  0  0  0  0  0  0  0
    5.2423   -1.6524    0.6194 C   0  0  0  0  0  0  0  0  0  0  0  0
    2.3022    1.1950    0.3192 C   0  0  2  0  0  0  0  0  0  0  0  0
    1.9882    1.5603    1.8581 C   0  0  0  0  0  0  0  0  0  0  0  0
    0.4532    1.6805    1.8347 C   0  0  0  0  0  0  0  0  0  0  0  0
    0.1228    1.3192    0.2780 C   0  0  2  0  0  0  0  0  0  0  0  0
   -1.2300    0.6395    0.4823 C   0  0  0  0  0  0  0  0  0  0  0  0
   -1.3543   -0.5033    0.8463 O   0  0  0  0  0  0  0  0  0  0  0  0
   -2.3477    1.4217    0.2213 N   0  0  0  0  0  0  0  0  0  0  0  0
   -3.7179    1.0868    0.3109 C   0  0  0  0  0  0  0  0  0  0  0  0
   -4.2274   -0.1188    0.7188 C   0  0  0  0  0  0  0  0  0  0  0  0
   -5.5767   -0.3942    0.8105 C   0  0  0  0  0  0  0  0  0  0  0  0
   -6.0828   -1.7283    1.2686 C   0  0  0  0  0  0  0  0  0  0  0  0
   -5.5771   -2.7696    0.5272 F   0  0  0  0  0  0  0  0  0  0  0  0
   -5.8148   -1.9433    2.5829 F   0  0  0  0  0  0  0  0  0  0  0  0
   -7.4477   -1.7322    1.0906 F   0  0  0  0  0  0  0  0  0  0  0  0
   -6.4568    0.6018    0.4684 C   0  0  0  0  0  0  0  0  0  0  0  0
   -5.9970    1.8337    0.0498 C   0  0  0  0  0  0  0  0  0  0  0  0
   -4.6453    2.0841   -0.0323 C   0  0  0  0  0  0  0  0  0  0  0  0
   -4.1310    3.4029   -0.4984 C   0  0  0  0  0  0  0  0  0  0  0  0
   -3.3807    3.2903   -1.6636 F   0  0  0  0  0  0  0  0  0  0  0  0
   -5.1185    4.3531   -0.5916 F   0  0  0  0  0  0  0  0  0  0  0  0
   -3.2710    3.8783    0.5156 F   0  0  0  0  0  0  0  0  0  0  0  0
  2  1  1  1
  2  3  1  0
  3  4  1  0
  5  4  1  1
  5  6  1  0
  6  7  1  6
  7  8  1  0
  9  8  1  1
  9 10  1  0
 10 11  1  0
 11 12  2  0
 11 13  1  0
 13 14  2  0
 14 15  1  0
 15 16  1  1
  6 17  1  0
 17 18  1  1
 18 19  1  0
 19 20  1  0
 20 21  1  1
 21 22  2  0
 21 23  1  0
 23 24  1  0
 24 25  2  0
 25 26  1  0
 26 27  1  0
 27 28  1  0
 27 29  1  0
 27 30  1  0
 26 31  2  0
 31 32  1  0
 32 33  2  0
 33 34  1  0
 34 35  1  0
 34 36  1  0
 34 37  1  0
 17  2  1  0
 33 24  1  0
 20  2  1  0
 15  5  1  0
 15  9  1  0
M  END
>  <zinc_id>  (1) 
ZINC000003932831

>  <smiles>  (1) 
C[C@]12CC[C@H]3[C@@H](CC[C@H]4NC(=O)C=C[C@]34C)[C@@H]1CC[C@@H]2C(=O)Nc1cc(C(F)(F)F)ccc1C(F)(F)F

$$$$
