
     RDKit          3D

 39 44  0  0  0  0  0  0  0  0999 V2000
   -0.2779   -5.9892   -2.9346 C   0  0  0  0  0  0  0  0  0  0  0  0
    1.0074   -5.2870   -2.6012 C   0  0  0  0  0  0  0  0  0  0  0  0
    0.9293   -3.8031   -2.7341 C   0  0  0  0  0  0  0  0  0  0  0  0
   -0.0773   -3.1838   -1.8638 C   0  0  0  0  0  0  0  0  0  0  0  0
   -0.8695   -3.8917   -1.0123 N   0  0  0  0  0  0  0  0  0  0  0  0
   -1.6704   -3.0311   -0.3712 C   0  0  0  0  0  0  0  0  0  0  0  0
   -1.3468   -1.7758   -0.8538 C   0  0  0  0  0  0  0  0  0  0  0  0
   -2.0558   -0.6912   -0.3314 C   0  0  0  0  0  0  0  0  0  0  0  0
   -3.0278   -0.8837    0.6191 C   0  0  0  0  0  0  0  0  0  0  0  0
   -3.7674    0.2549    1.1632 C   0  0  0  0  0  0  0  0  0  0  0  0
   -3.5971    1.5539    0.8202 N   0  0  0  0  0  0  0  0  0  0  0  0
   -4.4501    2.3219    1.5237 C   0  0  0  0  0  0  0  0  0  0  0  0
   -4.7242    3.6713    1.5959 C   0  0  0  0  0  0  0  0  0  0  0  0
   -5.6789    4.2182    2.4269 C   0  0  0  0  0  0  0  0  0  0  0  0
   -6.3994    3.3620    3.2308 C   0  0  0  0  0  0  0  0  0  0  0  0
   -6.1537    2.0063    3.1865 C   0  0  0  0  0  0  0  0  0  0  0  0
   -5.1817    1.4786    2.3365 C   0  0  0  0  0  0  0  0  0  0  0  0
   -4.7323    0.2380    2.0824 N   0  0  0  0  0  0  0  0  0  0  0  0
   -5.2438   -0.9505    2.7342 C   0  0  0  0  0  0  0  0  0  0  0  0
   -3.3313   -2.1458    1.0837 C   0  0  0  0  0  0  0  0  0  0  0  0
   -2.6365   -3.2357    0.5754 C   0  0  0  0  0  0  0  0  0  0  0  0
   -2.9883   -4.5940    1.0993 C   0  0  0  0  0  0  0  0  0  0  0  0
   -0.3698   -1.8834   -1.7674 N   0  0  0  0  0  0  0  0  0  0  0  0
    0.2317   -0.8192   -2.4875 C   0  0  0  0  0  0  0  0  0  0  0  0
    1.4175   -0.2308   -1.8142 C   0  0  0  0  0  0  0  0  0  0  0  0
    2.6572   -0.7676   -2.0922 C   0  0  0  0  0  0  0  0  0  0  0  0
    3.7962   -0.2639   -1.4978 C   0  0  0  0  0  0  0  0  0  0  0  0
    3.7498    0.8041   -0.5943 C   0  0  0  0  0  0  0  0  0  0  0  0
    4.9463    1.2862    0.0719 C   0  0  0  0  0  0  0  0  0  0  0  0
    5.5784    0.3938    0.9619 C   0  0  0  0  0  0  0  0  0  0  0  0
    6.6793    0.7204    1.7030 C   0  0  0  0  0  0  0  0  0  0  0  0
    7.2068    1.9902    1.5794 C   0  0  0  0  0  0  0  0  0  0  0  0
    6.6001    2.8631    0.7166 C   0  0  0  0  0  0  0  0  0  0  0  0
    5.4778    2.5345   -0.0424 C   0  0  0  0  0  0  0  0  0  0  0  0
    4.9277    3.4933   -0.9807 C   0  0  0  0  0  0  0  0  0  0  0  0
    3.9979    3.3297   -1.7741 O   0  0  0  0  0  0  0  0  0  0  0  0
    5.5158    4.7755   -1.0021 O   0  0  0  0  0  0  0  0  0  0  0  0
    2.5019    1.3182   -0.3368 C   0  0  0  0  0  0  0  0  0  0  0  0
    1.3590    0.8136   -0.9325 C   0  0  0  0  0  0  0  0  0  0  0  0
  1  2  1  0
  2  3  1  0
  3  4  1  0
  4  5  2  0
  5  6  1  0
  6  7  2  0
  7  8  1  0
  8  9  2  0
  9 10  1  0
 10 11  2  0
 11 12  1  0
 12 13  2  0
 13 14  1  0
 14 15  2  0
 15 16  1  0
 16 17  2  0
 17 18  1  0
 18 19  1  0
  9 20  1  0
 20 21  2  0
 21 22  1  0
  7 23  1  0
 23 24  1  0
 24 25  1  0
 25 26  2  0
 26 27  1  0
 27 28  2  0
 28 29  1  0
 29 30  2  0
 30 31  1  0
 31 32  2  0
 32 33  1  0
 33 34  2  0
 34 35  1  0
 35 36  2  0
 35 37  1  0
 28 38  1  0
 38 39  2  0
 23  4  1  0
 39 25  1  0
 21  6  1  0
 34 29  1  0
 18 10  1  0
 17 12  1  0
M  END
>  <zinc_id>  (1) 
ZINC000001530886

>  <smiles>  (1) 
CCCc1nc2c(C)cc(-c3nc4ccccc4n3C)cc2n1Cc1ccc(-c2ccccc2C(=O)O)cc1

$$$$
