
     RDKit          3D

 31 33  0  0  0  0  0  0  0  0999 V2000
   -3.0735    3.9093    0.0946 C   0  0  0  0  0  0  0  0  0  0  0  0
   -3.6160    3.0675   -1.0367 C   0  0  0  0  0  0  0  0  0  0  0  0
   -4.8830    2.4051   -0.7971 C   0  0  0  0  0  0  0  0  0  0  0  0
   -5.1470    1.3864    0.1546 C   0  0  0  0  0  0  0  0  0  0  0  0
   -4.5053    0.0488    0.0714 C   0  0  0  0  0  0  0  0  0  0  0  0
   -5.1585   -1.0070   -0.4267 O   0  0  0  0  0  0  0  0  0  0  0  0
   -4.4404   -2.0657   -0.4130 C   0  0  0  0  0  0  0  0  0  0  0  0
   -4.7020   -3.3782   -0.8321 C   0  0  0  0  0  0  0  0  0  0  0  0
   -3.7617   -4.3732   -0.7226 C   0  0  0  0  0  0  0  0  0  0  0  0
   -2.5292   -4.0275   -0.1779 C   0  0  0  0  0  0  0  0  0  0  0  0
   -2.2964   -2.7431    0.2254 C   0  0  0  0  0  0  0  0  0  0  0  0
   -3.2193   -1.7319    0.1280 C   0  0  0  0  0  0  0  0  0  0  0  0
   -3.2577   -0.3673    0.4404 C   0  0  0  0  0  0  0  0  0  0  0  0
   -2.1818    0.3647    1.0452 C   0  0  0  0  0  0  0  0  0  0  0  0
   -2.5046    0.9952    2.1194 O   0  0  0  0  0  0  0  0  0  0  0  0
   -0.8071    0.4827    0.6047 C   0  0  0  0  0  0  0  0  0  0  0  0
   -0.0907    1.6370    0.9879 C   0  0  0  0  0  0  0  0  0  0  0  0
    1.2287    1.7883    0.6768 C   0  0  0  0  0  0  0  0  0  0  0  0
    2.2124    3.5277    1.2812 I   0  0  0  0  0  0  0  0  0  0  0  0
    1.9059    0.8007   -0.0362 C   0  0  0  0  0  0  0  0  0  0  0  0
    3.2637    1.0536   -0.2876 O   0  0  0  0  0  0  0  0  0  0  0  0
    4.1887    0.7553    0.7711 C   0  0  0  0  0  0  0  0  0  0  0  0
    5.5791    1.0433    0.5634 C   0  0  0  0  0  0  0  0  0  0  0  0
    6.2922    0.3660   -0.4758 N   0  0  0  0  0  0  0  0  0  0  0  0
    7.6069    1.0938   -0.6637 C   0  0  0  0  0  0  0  0  0  0  0  0
    8.3340    0.2919   -1.7240 C   0  0  0  0  0  0  0  0  0  0  0  0
    6.7475   -0.9804    0.0403 C   0  0  0  0  0  0  0  0  0  0  0  0
    5.5338   -1.8027    0.2701 C   0  0  0  0  0  0  0  0  0  0  0  0
    1.2433   -0.2970   -0.4167 C   0  0  0  0  0  0  0  0  0  0  0  0
    2.1528   -1.8021   -1.5757 I   0  0  0  0  0  0  0  0  0  0  0  0
   -0.1150   -0.4411   -0.0843 C   0  0  0  0  0  0  0  0  0  0  0  0
  1  2  1  0
  2  3  1  0
  3  4  1  0
  4  5  1  0
  5  6  1  0
  6  7  1  0
  7  8  2  0
  8  9  1  0
  9 10  2  0
 10 11  1  0
 11 12  2  0
 12 13  1  0
 13 14  1  0
 14 15  2  0
 14 16  1  0
 16 17  2  0
 17 18  1  0
 18 19  1  0
 18 20  2  0
 20 21  1  0
 21 22  1  0
 22 23  1  0
 23 24  1  0
 24 25  1  0
 25 26  1  0
 24 27  1  0
 27 28  1  0
 20 29  1  0
 29 30  1  0
 29 31  2  0
 13  5  2  0
 31 16  1  0
 12  7  1  0
M  END
>  <zinc_id>  (1) 
ZINC000003830212

>  <smiles>  (1) 
CCCCc1oc2ccccc2c1C(=O)c1cc(I)c(OCCN(CC)CC)c(I)c1

$$$$
