
     RDKit          3D

 23 25  0  0  0  0  0  0  0  0999 V2000
    6.5011   -1.7401   -0.3255 O   0  0  0  0  0  0  0  0  0  0  0  0
    5.5459   -0.9232   -0.3908 C   0  0  0  0  0  0  0  0  0  0  0  0
    4.4897   -0.7690    0.6417 C   0  0  0  0  0  0  0  0  0  0  0  0
    4.0436    0.5920    0.4306 N   0  0  0  0  0  0  0  0  0  0  0  0
    3.4530    1.5126    1.2622 N   0  0  0  0  0  0  0  0  0  0  0  0
    2.2277    1.6352    1.4293 C   0  0  0  0  0  0  0  0  0  0  0  0
    1.2345    0.8216    0.7689 C   0  0  0  0  0  0  0  0  0  0  0  0
    1.4082   -0.1975   -0.1281 C   0  0  0  0  0  0  0  0  0  0  0  0
    0.1884   -0.6958   -0.5025 C   0  0  0  0  0  0  0  0  0  0  0  0
   -0.7401    0.0574    0.1999 C   0  0  0  0  0  0  0  0  0  0  0  0
   -2.1896   -0.1402    0.0989 C   0  0  0  0  0  0  0  0  0  0  0  0
   -3.0375    0.6465    0.8264 C   0  0  0  0  0  0  0  0  0  0  0  0
   -4.4298    0.4842    0.7535 C   0  0  0  0  0  0  0  0  0  0  0  0
   -4.9371   -0.4781   -0.0605 C   0  0  0  0  0  0  0  0  0  0  0  0
   -6.3304   -0.6904   -0.1769 N   0  0  0  0  0  0  0  0  0  0  0  0
   -6.8230   -1.5610   -0.9116 O   0  0  0  0  0  0  0  0  0  0  0  0
   -7.1764    0.1034    0.5567 O   0  0  0  0  0  0  0  0  0  0  0  0
   -4.1025   -1.2886   -0.8081 C   0  0  0  0  0  0  0  0  0  0  0  0
   -2.7258   -1.1059   -0.7166 C   0  0  0  0  0  0  0  0  0  0  0  0
   -0.0812    0.9076    0.9086 O   0  0  0  0  0  0  0  0  0  0  0  0
    4.3720    0.8842   -0.9450 C   0  0  0  0  0  0  0  0  0  0  0  0
    3.8895    1.9216   -1.7368 O   0  0  0  0  0  0  0  0  0  0  0  0
    5.2197    0.0232   -1.3972 N   0  0  0  0  0  0  0  0  0  0  0  0
  1  2  2  0
  2  3  1  0
  3  4  1  0
  4  5  1  0
  5  6  2  0
  6  7  1  0
  7  8  2  0
  8  9  1  0
  9 10  2  0
 10 11  1  0
 11 12  2  0
 12 13  1  0
 13 14  2  0
 14 15  1  0
 15 16  2  0
 15 17  1  0
 14 18  1  0
 18 19  2  0
 10 20  1  0
  4 21  1  0
 21 22  1  0
 21 23  2  0
 23  2  1  0
 20  7  1  0
 19 11  1  0
M  CHG  2  15   1  17  -1
M  END
>  <zinc_id>  (1) 
ZINC000007997966

>  <smiles>  (1) 
O=C1CN(/N=C\c2ccc(-c3ccc([N+](=O)[O-])cc3)o2)C(O)=N1

$$$$
