
     RDKit          3D

 10 11  0  0  0  0  0  0  0  0999 V2000
   -1.5128    1.9415   -1.0024 N   0  0  0  0  0  0  0  0  0  0  0  0
   -1.0875    0.7316   -0.4347 C   0  0  0  0  0  0  0  0  0  0  0  0
   -1.9885   -0.2017   -0.1321 N   0  0  0  0  0  0  0  0  0  0  0  0
   -1.6489   -1.3813    0.4131 C   0  0  0  0  0  0  0  0  0  0  0  0
   -0.3565   -1.6099    0.6538 N   0  0  0  0  0  0  0  0  0  0  0  0
    0.6215   -0.7410    0.3874 C   0  0  0  0  0  0  0  0  0  0  0  0
    1.9398   -0.7766    0.5479 N   0  0  0  0  0  0  0  0  0  0  0  0
    2.4172    0.4096    0.0898 C   0  0  0  0  0  0  0  0  0  0  0  0
    1.3813    1.1593   -0.3470 N   0  0  0  0  0  0  0  0  0  0  0  0
    0.2343    0.4684   -0.1759 C   0  0  0  0  0  0  0  0  0  0  0  0
  1  2  1  0
  2  3  2  0
  3  4  1  0
  4  5  2  0
  5  6  1  0
  6  7  1  0
  7  8  1  0
  8  9  2  0
  9 10  1  0
 10  2  1  0
 10  6  2  0
M  END
>  <zinc_id>  (1) 
ZINC000000000882

>  <smiles>  (1) 
Nc1ncnc2[nH]cnc12

$$$$
