
     RDKit          3D

  8  7  0  0  0  0  0  0  0  0999 V2000
   -0.2686    2.0591   -0.6567 C   0  0  0  0  0  0  0  0  0  0  0  0
    0.1954    0.8471   -0.0416 N   0  0  0  0  0  0  0  0  0  0  0  0
   -0.5975    0.4484    1.0683 C   0  0  0  0  0  0  0  0  0  0  0  0
   -2.0088    0.0110    0.6909 C   0  0  0  0  0  0  0  0  0  0  0  0
   -1.9494   -1.3246   -0.4531 Cl  0  0  0  0  0  0  0  0  0  0  0  0
    0.6201   -0.1287   -0.9522 C   0  0  0  0  0  0  0  0  0  0  0  0
    1.3099   -1.3316   -0.2566 C   0  0  0  0  0  0  0  0  0  0  0  0
    2.6989   -0.5807    0.6010 Cl  0  0  0  0  0  0  0  0  0  0  0  0
  1  2  1  0
  2  3  1  0
  3  4  1  0
  4  5  1  0
  2  6  1  0
  6  7  1  0
  7  8  1  0
M  END
>  <zinc_id>  (1) 
ZINC000002539484

>  <smiles>  (1) 
CN(CCCl)CCCl

$$$$
