
     RDKit          3D

 29 31  0  0  0  0  0  0  0  0999 V2000
    7.0544    1.9645   -0.4438 C   0  0  0  0  0  0  0  0  0  0  0  0
    6.3910    0.6496   -0.0644 C   0  0  0  0  0  0  0  0  0  0  0  0
    4.9737    0.9233    0.3059 N   0  0  0  0  0  0  0  0  0  0  0  0
    4.4489   -0.4038    0.6527 C   0  0  0  0  0  0  0  0  0  0  0  0
    5.1571   -0.8240    1.9276 C   0  0  0  0  0  0  0  0  0  0  0  0
    4.2716    1.4474   -0.8290 C   0  0  0  0  0  0  0  0  0  0  0  0
    3.9989    0.5181   -1.9401 C   0  0  0  0  0  0  0  0  0  0  0  0
    3.2009   -0.5884   -1.6857 O   0  0  0  0  0  0  0  0  0  0  0  0
    1.8686   -0.5172   -1.3056 C   0  0  0  0  0  0  0  0  0  0  0  0
    1.2689    0.6893   -1.1730 C   0  0  0  0  0  0  0  0  0  0  0  0
   -0.0544    0.7988   -0.7984 C   0  0  0  0  0  0  0  0  0  0  0  0
   -0.8016   -0.3140   -0.5505 C   0  0  0  0  0  0  0  0  0  0  0  0
   -2.1935   -0.4167   -0.1816 C   0  0  0  0  0  0  0  0  0  0  0  0
   -2.7560    0.2958    0.7582 C   0  0  0  0  0  0  0  0  0  0  0  0
   -4.5205   -0.0970    0.9452 Cl  0  0  0  0  0  0  0  0  0  0  0  0
   -2.2015    1.2768    1.6401 C   0  0  0  0  0  0  0  0  0  0  0  0
   -2.6836    1.1624    2.9791 C   0  0  0  0  0  0  0  0  0  0  0  0
   -2.2786    2.0504    3.9443 C   0  0  0  0  0  0  0  0  0  0  0  0
   -1.4061    3.0756    3.6807 C   0  0  0  0  0  0  0  0  0  0  0  0
   -0.9193    3.2092    2.3814 C   0  0  0  0  0  0  0  0  0  0  0  0
   -1.3532    2.2960    1.4466 C   0  0  0  0  0  0  0  0  0  0  0  0
   -3.0088   -1.4161   -0.9334 C   0  0  0  0  0  0  0  0  0  0  0  0
   -3.9593   -2.1609   -0.3166 C   0  0  0  0  0  0  0  0  0  0  0  0
   -4.7116   -3.0892   -1.0599 C   0  0  0  0  0  0  0  0  0  0  0  0
   -4.4918   -3.2484   -2.4022 C   0  0  0  0  0  0  0  0  0  0  0  0
   -3.5307   -2.4972   -3.0217 C   0  0  0  0  0  0  0  0  0  0  0  0
   -2.7879   -1.5733   -2.2666 C   0  0  0  0  0  0  0  0  0  0  0  0
   -0.1403   -1.5431   -0.6985 C   0  0  0  0  0  0  0  0  0  0  0  0
    1.1648   -1.6681   -1.0676 C   0  0  0  0  0  0  0  0  0  0  0  0
  1  2  1  0
  2  3  1  0
  3  4  1  0
  4  5  1  0
  3  6  1  0
  6  7  1  0
  7  8  1  0
  8  9  1  0
  9 10  2  0
 10 11  1  0
 11 12  2  0
 12 13  1  0
 13 14  2  0
 14 15  1  0
 14 16  1  0
 16 17  2  0
 17 18  1  0
 18 19  2  0
 19 20  1  0
 20 21  2  0
 13 22  1  0
 22 23  2  0
 23 24  1  0
 24 25  2  0
 25 26  1  0
 26 27  2  0
 12 28  1  0
 28 29  2  0
 29  9  1  0
 21 16  1  0
 27 22  1  0
M  END
>  <zinc_id>  (1) 
ZINC000001530601

>  <smiles>  (1) 
CCN(CC)CCOc1ccc(/C(=C(/Cl)c2ccccc2)c2ccccc2)cc1

$$$$
