
     RDKit          3D

 14 13  0  0  0  0  0  0  0  0999 V2000
    3.8980    2.3817    0.8114 C   0  0  0  0  0  0  0  0  0  0  0  0
    3.5294    0.7781    0.2116 S   0  0  0  0  0  0  0  0  0  0  0  0
    2.9003    1.0017   -1.2601 O   0  0  0  0  0  0  0  0  0  0  0  0
    4.6336   -0.1362   -0.0754 O   0  0  0  0  0  0  0  0  0  0  0  0
    2.2060    0.1822    0.9864 O   0  0  0  0  0  0  0  0  0  0  0  0
    2.1422   -1.2456    0.7729 C   0  0  0  0  0  0  0  0  0  0  0  0
    0.7699   -1.4518    0.0394 C   0  0  0  0  0  0  0  0  0  0  0  0
    0.0529   -0.2133    0.1783 C   0  0  0  0  0  0  0  0  0  0  0  0
   -1.3415   -0.1506   -0.4997 C   0  0  0  0  0  0  0  0  0  0  0  0
   -2.1780   -0.4319    0.6221 O   0  0  0  0  0  0  0  0  0  0  0  0
   -3.7933   -0.2705    0.0990 S   0  0  0  0  0  0  0  0  0  0  0  0
   -3.8963   -0.0619   -1.6652 C   0  0  0  0  0  0  0  0  0  0  0  0
   -4.3258    1.0179    0.7388 O   0  0  0  0  0  0  0  0  0  0  0  0
   -4.5974   -1.3999    0.6397 O   0  0  0  0  0  0  0  0  0  0  0  0
  1  2  1  0
  2  3  2  0
  2  4  2  0
  2  5  1  0
  5  6  1  0
  6  7  1  0
  7  8  1  0
  8  9  1  0
  9 10  1  0
 10 11  1  0
 11 12  1  0
 11 13  2  0
 11 14  2  0
M  END
>  <zinc_id>  (1) 
ZINC000001530572

>  <smiles>  (1) 
CS(=O)(=O)OCCCCOS(C)(=O)=O

$$$$
