
     RDKit          3D

 20 20  0  0  0  0  0  0  0  0999 V2000
   -2.6211    4.3734    0.1636 C   0  0  0  0  0  0  0  0  0  0  0  0
   -2.2011    2.9995    0.0082 N   0  0  0  0  0  0  0  0  0  0  0  0
   -0.9524    2.5307    0.4556 C   0  0  0  0  0  0  0  0  0  0  0  0
   -0.1422    3.3084    1.0181 O   0  0  0  0  0  0  0  0  0  0  0  0
   -0.5387    1.1414    0.2934 C   0  0  0  0  0  0  0  0  0  0  0  0
    0.6800    0.6764    0.7283 C   0  0  0  0  0  0  0  0  0  0  0  0
    1.9786    2.0461    1.6609 I   0  0  0  0  0  0  0  0  0  0  0  0
    1.0856   -0.6350    0.5820 C   0  0  0  0  0  0  0  0  0  0  0  0
    2.3541   -1.0896    1.0420 N   0  0  0  0  0  0  0  0  0  0  0  0
    3.5281   -1.0881    0.2797 C   0  0  0  0  0  0  0  0  0  0  0  0
    4.7819   -1.5937    0.8927 C   0  0  0  0  0  0  0  0  0  0  0  0
    3.4917   -0.6619   -0.8956 O   0  0  0  0  0  0  0  0  0  0  0  0
    0.2070   -1.5028   -0.0341 C   0  0  0  0  0  0  0  0  0  0  0  0
    0.7493   -3.5155   -0.2949 I   0  0  0  0  0  0  0  0  0  0  0  0
   -1.0403   -1.0993   -0.4974 C   0  0  0  0  0  0  0  0  0  0  0  0
   -1.9548   -2.0313   -1.1459 C   0  0  0  0  0  0  0  0  0  0  0  0
   -2.7672   -2.6518   -0.4156 O   0  0  0  0  0  0  0  0  0  0  0  0
   -1.9906   -2.2800   -2.5069 O   0  0  0  0  0  0  0  0  0  0  0  0
   -1.3825    0.2265   -0.3188 C   0  0  0  0  0  0  0  0  0  0  0  0
   -3.2654    0.8466   -1.0154 I   0  0  0  0  0  0  0  0  0  0  0  0
  1  2  1  0
  2  3  1  0
  3  4  2  0
  3  5  1  0
  5  6  2  0
  6  7  1  0
  6  8  1  0
  8  9  1  0
  9 10  1  0
 10 11  1  0
 10 12  2  0
  8 13  2  0
 13 14  1  0
 13 15  1  0
 15 16  1  0
 16 17  2  0
 16 18  1  0
 15 19  2  0
 19 20  1  0
 19  5  1  0
M  END
>  <zinc_id>  (1) 
ZINC000003830961

>  <smiles>  (1) 
CNC(=O)c1c(I)c(NC(C)=O)c(I)c(C(=O)O)c1I

$$$$
