
     RDKit          3D

 19 20  0  0  0  0  0  0  0  0999 V2000
   -1.4522   -3.2306    0.8824 C   0  0  0  0  0  0  0  0  0  0  0  0
   -1.4563   -2.9306    0.3882 N   0  0  0  0  0  0  0  0  0  0  0  0
   -2.0397   -3.2567   -0.9401 C   0  0  0  0  0  0  0  0  0  0  0  0
   -0.2647   -2.1215    0.0349 C   0  0  0  0  0  0  0  0  0  0  0  0
   -0.2517   -0.9360    1.1278 C   0  0  1  0  0  0  0  0  0  0  0  0
    1.0738   -0.2220    0.6165 C   0  0  0  0  0  0  0  0  0  0  0  0
    1.5954    0.7122    1.5261 C   0  0  0  0  0  0  0  0  0  0  0  0
    2.7452    1.3787    1.1609 C   0  0  0  0  0  0  0  0  0  0  0  0
    3.3542    1.1409   -0.0379 C   0  0  0  0  0  0  0  0  0  0  0  0
    4.4968    1.7985   -0.4089 O   0  0  0  0  0  0  0  0  0  0  0  0
    2.8058    0.2185   -0.8925 C   0  0  0  0  0  0  0  0  0  0  0  0
    1.6631   -0.4500   -0.5399 C   0  0  0  0  0  0  0  0  0  0  0  0
   -1.3187    0.0545    0.4460 C   0  0  0  0  0  0  0  0  0  0  0  0
   -2.5340   -0.4768    0.2922 O   0  0  0  0  0  0  0  0  0  0  0  0
   -1.4609    1.1054    1.5756 C   0  0  0  0  0  0  0  0  0  0  0  0
   -1.7573    2.4672    0.9702 C   0  0  0  0  0  0  0  0  0  0  0  0
   -2.6188    2.3574   -0.2549 C   0  0  0  0  0  0  0  0  0  0  0  0
   -1.8398    1.5914   -1.3014 C   0  0  0  0  0  0  0  0  0  0  0  0
   -0.7402    0.7995   -0.6900 C   0  0  0  0  0  0  0  0  0  0  0  0
  1  2  1  0
  2  3  1  0
  2  4  1  0
  5  4  1  6
  5  6  1  0
  6  7  2  0
  7  8  1  0
  8  9  2  0
  9 10  1  0
  9 11  1  0
 11 12  2  0
  5 13  1  0
 13 14  1  0
 13 15  1  0
 15 16  1  0
 16 17  1  0
 17 18  1  0
 18 19  1  0
 12  6  1  0
 19 13  1  0
M  END
>  <zinc_id>  (1) 
ZINC000002525885

>  <smiles>  (1) 
CN(C)C[C@@H](c1ccc(O)cc1)C1(O)CCCCC1

$$$$
