
     RDKit          3D

 17 17  0  0  0  0  0  0  0  0999 V2000
    5.9408   -0.6266   -0.6171 C   0  0  0  0  0  0  0  0  0  0  0  0
    4.4219   -0.6223   -0.4016 C   0  0  0  0  0  0  0  0  0  0  0  0
    3.8743    0.6828   -0.6017 N   0  0  0  0  0  0  0  0  0  0  0  0
    4.2662    1.6341    0.4049 C   0  0  0  0  0  0  0  0  0  0  0  0
    3.6817    1.3533    1.7721 C   0  0  0  0  0  0  0  0  0  0  0  0
    2.4715    0.6089   -0.8453 C   0  0  0  0  0  0  0  0  0  0  0  0
    1.7331    0.1664    0.3492 C   0  0  0  0  0  0  0  0  0  0  0  0
    0.3324    0.1035    0.2957 N   0  0  0  0  0  0  0  0  0  0  0  0
   -0.5123   -0.6440   -0.5562 C   0  0  0  0  0  0  0  0  0  0  0  0
   -0.0039   -1.3849   -1.3965 O   0  0  0  0  0  0  0  0  0  0  0  0
   -1.9581   -0.4645   -0.3678 C   0  0  0  0  0  0  0  0  0  0  0  0
   -2.8740   -0.9128   -1.2944 C   0  0  0  0  0  0  0  0  0  0  0  0
   -4.2231   -0.6923   -1.1033 C   0  0  0  0  0  0  0  0  0  0  0  0
   -4.7386   -0.0322   -0.0074 C   0  0  0  0  0  0  0  0  0  0  0  0
   -6.1237    0.2084    0.2111 N   0  0  0  0  0  0  0  0  0  0  0  0
   -3.8230    0.4162    0.9246 C   0  0  0  0  0  0  0  0  0  0  0  0
   -2.4653    0.2061    0.7521 C   0  0  0  0  0  0  0  0  0  0  0  0
  1  2  1  0
  2  3  1  0
  3  4  1  0
  4  5  1  0
  3  6  1  0
  6  7  1  0
  7  8  1  0
  8  9  1  0
  9 10  2  0
  9 11  1  0
 11 12  2  0
 12 13  1  0
 13 14  2  0
 14 15  1  0
 14 16  1  0
 16 17  2  0
 17 11  1  0
M  END
>  <zinc_id>  (1) 
ZINC000001530756

>  <smiles>  (1) 
CCN(CC)CCNC(=O)c1ccc(N)cc1

$$$$
