
     RDKit          3D

 23 26  0  0  0  0  0  0  0  0999 V2000
   -5.5029   -1.9583   -0.0763 C   0  0  0  0  0  0  0  0  0  0  0  0
   -4.2533   -1.2742    0.0441 N   0  0  0  0  0  0  0  0  0  0  0  0
   -3.0994   -1.8696   -0.1292 N   0  0  0  0  0  0  0  0  0  0  0  0
   -2.0652   -1.0267    0.0341 C   0  0  0  0  0  0  0  0  0  0  0  0
   -0.6513   -1.3790   -0.0903 C   0  0  0  0  0  0  0  0  0  0  0  0
   -0.3385   -2.5619   -0.3672 O   0  0  0  0  0  0  0  0  0  0  0  0
    0.4032   -0.4812    0.0784 N   0  0  0  0  0  0  0  0  0  0  0  0
    1.8101   -0.8567   -0.0518 C   0  0  0  0  0  0  0  0  0  0  0  0
    2.2904    0.0191   -1.2708 C   0  0  0  0  0  0  0  0  0  0  0  0
    3.1498    0.8581   -0.2459 C   0  0  2  0  0  0  0  0  0  0  0  0
    4.2645    1.7349   -0.9297 C   0  0  0  0  0  0  0  0  0  0  0  0
    4.9115    1.8844    0.5002 C   0  0  0  0  0  0  0  0  0  0  0  0
    4.2299    1.2042    1.6285 C   0  0  0  0  0  0  0  0  0  0  0  0
    3.9578   -0.3909    1.3900 C   0  0  1  0  0  0  0  0  0  0  0  0
    2.3343   -0.4579    1.3110 C   0  0  0  0  0  0  0  0  0  0  0  0
    4.1431   -0.3869   -0.1126 N   0  0  0  0  0  0  0  0  0  0  0  0
    5.2188   -0.4871   -0.7357 C   0  0  0  0  0  0  0  0  0  0  0  0
   -2.6201    0.1942    0.3337 C   0  0  0  0  0  0  0  0  0  0  0  0
   -2.0731    1.4199    0.6007 C   0  0  0  0  0  0  0  0  0  0  0  0
   -2.9526    2.4670    0.8703 C   0  0  0  0  0  0  0  0  0  0  0  0
   -4.3140    2.2943    0.8722 C   0  0  0  0  0  0  0  0  0  0  0  0
   -4.8576    1.0555    0.6020 C   0  0  0  0  0  0  0  0  0  0  0  0
   -3.9854   -0.0011    0.3304 C   0  0  0  0  0  0  0  0  0  0  0  0
  1  2  1  0
  2  3  1  0
  3  4  2  0
  4  5  1  0
  5  6  2  0
  5  7  1  0
  7  8  1  0
  8  9  1  0
 10  9  1  6
 10 11  1  0
 11 12  1  0
 12 13  1  0
 14 13  1  6
 14 15  1  0
 14 16  1  0
 16 17  1  0
  4 18  1  0
 18 19  2  0
 19 20  1  0
 20 21  2  0
 21 22  1  0
 22 23  2  0
 23  2  1  0
 15  8  1  0
 23 18  1  0
 16 10  1  0
M  END
>  <zinc_id>  (1) 
ZINC000000896557

>  <smiles>  (1) 
CN1[C@H]2CCC[C@H]1CC(NC(=O)c1nn(C)c3ccccc13)C2

$$$$
