
     RDKit          3D

 23 26  0  0  0  0  0  0  0  0999 V2000
   -2.9964   -1.0844   -1.6442 O   0  0  0  0  0  0  0  0  0  0  0  0
   -2.2265   -0.3943   -1.0746 C   0  0  0  0  0  0  0  0  0  0  0  0
   -2.7067    0.8870   -0.5141 C   0  0  0  0  0  0  0  0  0  0  0  0
   -4.1442    1.0742   -0.8472 C   0  0  0  0  0  0  0  0  0  0  0  0
   -4.9968    1.4403    0.3453 C   0  0  0  0  0  0  0  0  0  0  0  0
   -4.7997    0.5238    1.5141 C   0  0  0  0  0  0  0  0  0  0  0  0
   -3.4497   -0.1041    1.5841 C   0  0  0  0  0  0  0  0  0  0  0  0
   -2.4455    0.8756    0.9822 C   0  0  0  0  0  0  0  0  0  0  0  0
   -0.8844   -0.7237   -0.9011 N   0  0  0  0  0  0  0  0  0  0  0  0
   -0.4002   -2.0055   -1.4562 C   0  0  0  0  0  0  0  0  0  0  0  0
    1.0492   -1.7046   -1.7457 C   0  0  0  0  0  0  0  0  0  0  0  0
    1.4862   -1.8611   -2.9165 O   0  0  0  0  0  0  0  0  0  0  0  0
    1.8428   -1.2585   -0.6709 N   0  0  0  0  0  0  0  0  0  0  0  0
    3.2413   -1.2535   -0.8076 C   0  0  0  0  0  0  0  0  0  0  0  0
    3.9774   -0.9933    0.4894 C   0  0  0  0  0  0  0  0  0  0  0  0
    3.2784    0.1477    1.1381 C   0  0  0  0  0  0  0  0  0  0  0  0
    4.1169    1.1084    1.7052 C   0  0  0  0  0  0  0  0  0  0  0  0
    3.5298    2.1933    2.3116 C   0  0  0  0  0  0  0  0  0  0  0  0
    2.1586    2.2908    2.3367 C   0  0  0  0  0  0  0  0  0  0  0  0
    1.3388    1.3042    1.7552 C   0  0  0  0  0  0  0  0  0  0  0  0
    1.9443    0.2357    1.1589 C   0  0  0  0  0  0  0  0  0  0  0  0
    1.0666   -0.8464    0.5533 C   0  0  1  0  0  0  0  0  0  0  0  0
    0.0200    0.1484   -0.2083 C   0  0  0  0  0  0  0  0  0  0  0  0
  1  2  2  0
  2  3  1  0
  3  4  1  0
  4  5  1  0
  5  6  1  0
  6  7  1  0
  7  8  1  0
  2  9  1  0
  9 10  1  0
 10 11  1  0
 11 12  2  0
 11 13  1  0
 13 14  1  0
 14 15  1  0
 15 16  1  0
 16 17  2  0
 17 18  1  0
 18 19  2  0
 19 20  1  0
 20 21  2  0
 21 22  1  0
 22 23  1  6
  8  3  1  0
 23  9  1  0
 22 13  1  0
 21 16  1  0
M  END
>  <zinc_id>  (1) 
ZINC000000403566

>  <smiles>  (1) 
O=C(C1CCCCC1)N1CC(=O)N2CCc3ccccc3[C@H]2C1

$$$$
