
     RDKit          3D

 26 28  0  0  0  0  0  0  0  0999 V2000
   -3.5651   -4.9800   -0.1036 C   0  0  0  0  0  0  0  0  0  0  0  0
   -2.9546   -3.6287   -0.0618 C   0  0  0  0  0  0  0  0  0  0  0  0
   -3.8275   -2.5643   -0.2476 C   0  0  0  0  0  0  0  0  0  0  0  0
   -3.2941   -1.2932   -0.1932 C   0  0  0  0  0  0  0  0  0  0  0  0
   -1.9488   -1.0092    0.0389 C   0  0  0  0  0  0  0  0  0  0  0  0
   -1.6107    0.3917    0.1180 C   0  0  0  0  0  0  0  0  0  0  0  0
   -2.5329    1.4268    0.1558 C   0  0  0  0  0  0  0  0  0  0  0  0
   -1.8334    2.6058    0.2208 C   0  0  0  0  0  0  0  0  0  0  0  0
   -2.4930    3.9650    0.2958 C   0  0  0  0  0  0  0  0  0  0  0  0
   -3.7455    3.7934    0.8451 F   0  0  0  0  0  0  0  0  0  0  0  0
   -2.6789    4.3742   -1.0294 F   0  0  0  0  0  0  0  0  0  0  0  0
   -1.7219    4.9172    0.8899 F   0  0  0  0  0  0  0  0  0  0  0  0
   -0.5685    2.2649    0.2202 N   0  0  0  0  0  0  0  0  0  0  0  0
   -0.3924    0.9274    0.1592 N   0  0  0  0  0  0  0  0  0  0  0  0
    0.9155    0.3417    0.1105 C   0  0  0  0  0  0  0  0  0  0  0  0
    1.6414   -0.0356    1.1837 C   0  0  0  0  0  0  0  0  0  0  0  0
    2.9550   -0.5065    1.0818 C   0  0  0  0  0  0  0  0  0  0  0  0
    3.5721   -0.6094   -0.1452 C   0  0  0  0  0  0  0  0  0  0  0  0
    5.2126   -1.1516   -0.3555 S   0  0  0  0  0  0  0  0  0  0  0  0
    6.2338    0.2315   -0.3903 N   0  0  0  0  0  0  0  0  0  0  0  0
    5.5739   -2.0220    0.8113 O   0  0  0  0  0  0  0  0  0  0  0  0
    5.3691   -1.9878   -1.5995 O   0  0  0  0  0  0  0  0  0  0  0  0
    2.8441   -0.2324   -1.2616 C   0  0  0  0  0  0  0  0  0  0  0  0
    1.5602    0.2277   -1.1314 C   0  0  0  0  0  0  0  0  0  0  0  0
   -1.0921   -2.0680    0.2214 C   0  0  0  0  0  0  0  0  0  0  0  0
   -1.6186   -3.3786    0.1666 C   0  0  0  0  0  0  0  0  0  0  0  0
  1  2  1  0
  2  3  2  0
  3  4  1  0
  4  5  2  0
  5  6  1  0
  6  7  2  0
  7  8  1  0
  8  9  1  0
  9 10  1  0
  9 11  1  0
  9 12  1  0
  8 13  2  0
 13 14  1  0
 14 15  1  0
 15 16  2  0
 16 17  1  0
 17 18  2  0
 18 19  1  0
 19 20  1  0
 19 21  2  0
 19 22  2  0
 18 23  1  0
 23 24  2  0
  5 25  1  0
 25 26  2  0
 26  2  1  0
 14  6  1  0
 24 15  1  0
M  END
>  <zinc_id>  (1) 
ZINC000002570895

>  <smiles>  (1) 
Cc1ccc(-c2cc(C(F)(F)F)nn2-c2ccc(S(N)(=O)=O)cc2)cc1

$$$$
