
     RDKit          3D

 29 32  0  0  0  0  0  0  0  0999 V2000
    2.1544   -2.1556    1.6574 O   0  0  0  0  0  0  0  0  0  0  0  0
    1.8328   -1.2931    0.4254 C   0  0  2  0  0  0  0  0  0  0  0  0
    0.7635   -2.4129   -0.1219 C   0  0  0  0  0  0  0  0  0  0  0  0
   -0.2307   -2.5592    0.8791 N   0  0  0  0  0  0  0  0  0  0  0  0
   -1.0485   -1.4118    1.0065 C   0  0  0  0  0  0  0  0  0  0  0  0
   -1.9783   -1.3069   -0.3186 C   0  0  2  0  0  0  0  0  0  0  0  0
   -0.8467   -1.1145   -1.2758 O   0  0  0  0  0  0  0  0  0  0  0  0
   -2.2675    0.3860   -0.1005 C   0  0  1  0  0  0  0  0  0  0  0  0
   -3.0688    0.4914   -1.5063 C   0  0  0  0  0  0  0  0  0  0  0  0
   -4.3265   -0.3098   -1.4413 C   0  0  0  0  0  0  0  0  0  0  0  0
   -5.2031    0.5015   -0.5564 C   0  0  0  0  0  0  0  0  0  0  0  0
   -6.4102    0.9853   -0.9292 C   0  0  0  0  0  0  0  0  0  0  0  0
   -7.1084    1.7370    0.0026 C   0  0  0  0  0  0  0  0  0  0  0  0
   -8.3223    2.2419   -0.3208 F   0  0  0  0  0  0  0  0  0  0  0  0
   -6.5489    1.9599    1.2616 C   0  0  0  0  0  0  0  0  0  0  0  0
   -5.3193    1.4555    1.6120 C   0  0  0  0  0  0  0  0  0  0  0  0
   -4.6411    0.7116    0.6759 C   0  0  0  0  0  0  0  0  0  0  0  0
   -3.4184    0.1338    0.8456 O   0  0  0  0  0  0  0  0  0  0  0  0
    3.1120   -2.0194   -0.5388 C   0  0  1  0  0  0  0  0  0  0  0  0
    3.1712   -0.7681   -1.5806 C   0  0  0  0  0  0  0  0  0  0  0  0
    4.6587   -0.6912   -1.9854 C   0  0  0  0  0  0  0  0  0  0  0  0
    5.2005    0.0735   -0.8005 C   0  0  0  0  0  0  0  0  0  0  0  0
    5.8941    1.2315   -0.9090 C   0  0  0  0  0  0  0  0  0  0  0  0
    6.3282    1.8403    0.2454 C   0  0  0  0  0  0  0  0  0  0  0  0
    7.0375    3.0186    0.2063 F   0  0  0  0  0  0  0  0  0  0  0  0
    6.0689    1.2948    1.4886 C   0  0  0  0  0  0  0  0  0  0  0  0
    5.3607    0.1187    1.5394 C   0  0  0  0  0  0  0  0  0  0  0  0
    4.9176   -0.5078    0.4030 C   0  0  0  0  0  0  0  0  0  0  0  0
    4.2386   -1.6311    0.3692 O   0  0  0  0  0  0  0  0  0  0  0  0
  2  1  1  1
  2  3  1  0
  3  4  1  0
  4  5  1  0
  5  6  1  0
  6  7  1  6
  6  8  1  0
  8  9  1  6
  9 10  1  0
 10 11  1  0
 11 12  2  0
 12 13  1  0
 13 14  1  0
 13 15  2  0
 15 16  1  0
 16 17  2  0
 17 18  1  0
  2 19  1  0
 19 20  1  6
 20 21  1  0
 21 22  1  0
 22 23  2  0
 23 24  1  0
 24 25  1  0
 24 26  2  0
 26 27  1  0
 27 28  2  0
 28 29  1  0
 18  8  1  0
 29 19  1  0
 17 11  1  0
 28 22  1  0
M  END
>  <zinc_id>  (1) 
ZINC000000607986

>  <smiles>  (1) 
O[C@@H](CNC[C@@H](O)[C@H]1CCc2cc(F)ccc2O1)[C@H]1CCc2cc(F)ccc2O1

$$$$
