
     RDKit          3D

 13 15  0  0  0  0  0  0  0  0999 V2000
    3.2342    1.1848   -1.2247 C   0  0  0  0  0  0  0  0  0  0  0  0
    2.0989    0.8690   -0.1503 C   0  0  1  0  0  0  0  0  0  0  0  0
    1.0940    0.4259   -1.1218 O   0  0  0  0  0  0  0  0  0  0  0  0
    0.2419   -0.2975   -0.2936 C   0  0  1  0  0  0  0  0  0  0  0  0
    0.9646   -1.6218   -0.0120 C   0  0  0  0  0  0  0  0  0  0  0  0
    2.6714   -0.9563    0.1633 S   0  0  0  0  0  0  0  0  0  0  0  0
   -0.0100    0.4858    0.9508 C   0  0  0  0  0  0  0  0  0  0  0  0
   -1.4538    0.6809    1.1448 N   0  0  0  0  0  0  0  0  0  0  0  0
   -2.0064    1.3893    0.0125 C   0  0  0  0  0  0  0  0  0  0  0  0
   -1.8914    0.5751   -1.2618 C   0  0  0  0  0  0  0  0  0  0  0  0
   -1.0461   -0.6263   -0.9524 C   0  0  0  0  0  0  0  0  0  0  0  0
   -1.8509   -1.4812    0.0363 C   0  0  0  0  0  0  0  0  0  0  0  0
   -2.0465   -0.6277    1.2705 C   0  0  0  0  0  0  0  0  0  0  0  0
  2  1  1  6
  2  3  1  0
  3  4  1  0
  4  5  1  1
  5  6  1  0
  4  7  1  0
  7  8  1  0
  8  9  1  0
  9 10  1  0
 10 11  1  0
 11 12  1  0
 12 13  1  0
  6  2  1  0
 13  8  1  0
 11  4  1  0
M  END
>  <zinc_id>  (1) 
ZINC000000010164

>  <smiles>  (1) 
C[C@H]1O[C@@]2(CS1)CN1CCC2CC1

$$$$
