
     RDKit          3D

 27 30  0  0  0  0  0  0  0  0999 V2000
   -4.3751    2.8493   -1.0117 C   0  0  0  0  0  0  0  0  0  0  0  0
   -4.1693    2.2797   -0.8528 C   0  0  0  0  0  0  0  0  0  0  0  0
   -3.9466    0.8115   -0.7991 C   0  0  0  0  0  0  0  0  0  0  0  0
   -4.6089    0.2105   -1.6484 O   0  0  0  0  0  0  0  0  0  0  0  0
   -3.0231    0.1667    0.1793 C   0  0  1  0  0  0  0  0  0  0  0  0
   -3.5437    0.5227    1.5572 C   0  0  0  0  0  0  0  0  0  0  0  0
   -3.3410   -1.3954   -0.0428 C   0  0  2  0  0  0  0  0  0  0  0  0
   -2.8824   -1.8716    1.4394 C   0  0  0  0  0  0  0  0  0  0  0  0
   -1.9271   -1.8130   -0.7697 C   0  0  0  0  0  0  0  0  0  0  0  0
   -0.9582   -1.0856    0.2777 C   0  0  1  0  0  0  0  0  0  0  0  0
    0.3156   -0.8559   -0.7877 C   0  0  2  0  0  0  0  0  0  0  0  0
    0.9766   -2.2624   -0.4389 C   0  0  0  0  0  0  0  0  0  0  0  0
    2.4048   -2.3300   -0.8227 C   0  0  0  0  0  0  0  0  0  0  0  0
    3.1806   -1.2030   -0.2253 C   0  0  0  0  0  0  0  0  0  0  0  0
    4.2724   -1.3470    0.4498 C   0  0  0  0  0  0  0  0  0  0  0  0
    4.9457   -0.1900    0.9841 C   0  0  0  0  0  0  0  0  0  0  0  0
    6.0127   -0.2740    1.6494 O   0  0  0  0  0  0  0  0  0  0  0  0
    4.3771    1.1122    0.7486 C   0  0  0  0  0  0  0  0  0  0  0  0
    3.2691    1.2628    0.0647 C   0  0  0  0  0  0  0  0  0  0  0  0
    2.5275    0.1364   -0.5077 C   0  0  1  0  0  0  0  0  0  0  0  0
    2.3546    0.1611   -1.9483 C   0  0  0  0  0  0  0  0  0  0  0  0
    1.1927   -0.0448    0.3438 C   0  0  1  0  0  0  0  0  0  0  0  0
    0.6443    1.5305    0.1689 C   0  0  1  0  0  0  0  0  0  0  0  0
    0.4549    1.6374   -1.3020 O   0  0  0  0  0  0  0  0  0  0  0  0
   -0.8816    1.2955    0.6372 C   0  0  0  0  0  0  0  0  0  0  0  0
   -1.6180    0.3493   -0.0791 C   0  0  2  0  0  0  0  0  0  0  0  0
   -1.6536    0.3473   -1.6011 C   0  0  0  0  0  0  0  0  0  0  0  0
  1  2  1  0
  2  3  1  0
  3  4  2  0
  3  5  1  0
  5  6  1  1
  5  7  1  0
  7  8  1  1
  7  9  1  0
 10  9  1  6
 10 11  1  0
 11 12  1  1
 12 13  1  0
 13 14  1  0
 14 15  2  0
 15 16  1  0
 16 17  2  0
 16 18  1  0
 18 19  2  0
 19 20  1  0
 20 21  1  6
 20 22  1  0
 22 23  1  6
 23 24  1  6
 23 25  1  0
 25 26  1  0
 26 27  1  6
 26  5  1  0
 26 10  1  0
 22 11  1  0
 20 14  1  0
M  END
>  <zinc_id>  (1) 
ZINC000003945984

>  <smiles>  (1) 
CCC(=O)[C@@]1(C)[C@H](C)C[C@H]2[C@@H]3CCC4=CC(=O)C=C[C@]4(C)[C@H]3[C@@H](O)C[C@@]21C

$$$$
