
     RDKit          3D

 25 27  0  0  0  0  0  0  0  0999 V2000
    6.4753    0.9299    0.3463 Cl  0  0  0  0  0  0  0  0  0  0  0  0
    5.1268    0.2239    0.1805 C   0  0  0  0  0  0  0  0  0  0  0  0
    4.4237   -0.3131    1.2469 C   0  0  0  0  0  0  0  0  0  0  0  0
    3.1952   -0.9591    1.1046 C   0  0  0  0  0  0  0  0  0  0  0  0
    2.6229   -1.0905   -0.1261 C   0  0  0  0  0  0  0  0  0  0  0  0
    1.3458   -1.7404   -0.4293 C   0  0  0  0  0  0  0  0  0  0  0  0
    0.1426   -0.8363   -0.3798 C   0  0  0  0  0  0  0  0  0  0  0  0
    0.0064   -0.2303    1.0866 C   0  0  2  0  0  0  0  0  0  0  0  0
   -0.1592   -1.5893    1.8517 C   0  0  0  0  0  0  0  0  0  0  0  0
   -1.3086   -2.3045    1.4277 N   0  0  0  0  0  0  0  0  0  0  0  0
   -1.4072   -3.2068    0.4502 C   0  0  0  0  0  0  0  0  0  0  0  0
   -2.7036   -3.6701    0.3659 C   0  0  0  0  0  0  0  0  0  0  0  0
   -3.3936   -3.0240    1.3204 N   0  0  0  0  0  0  0  0  0  0  0  0
   -2.5406   -2.2096    1.9462 C   0  0  0  0  0  0  0  0  0  0  0  0
   -1.7858    0.2565    0.9869 S   0  0  0  0  0  0  0  0  0  0  0  0
   -2.0152    1.7065   -0.0092 C   0  0  0  0  0  0  0  0  0  0  0  0
   -1.0401    2.4950   -0.5172 C   0  0  0  0  0  0  0  0  0  0  0  0
    0.6433    2.2438   -0.1041 Cl  0  0  0  0  0  0  0  0  0  0  0  0
   -1.3007    3.5892   -1.3452 C   0  0  0  0  0  0  0  0  0  0  0  0
   -2.5774    3.9253   -1.6886 C   0  0  0  0  0  0  0  0  0  0  0  0
   -3.5815    3.1251   -1.1715 C   0  0  0  0  0  0  0  0  0  0  0  0
   -3.3377    2.0580   -0.3659 C   0  0  0  0  0  0  0  0  0  0  0  0
   -4.6614    1.1036    0.2419 Cl  0  0  0  0  0  0  0  0  0  0  0  0
    3.3040   -0.5624   -1.2125 C   0  0  0  0  0  0  0  0  0  0  0  0
    4.5269    0.0799   -1.0657 C   0  0  0  0  0  0  0  0  0  0  0  0
  1  2  1  0
  2  3  2  0
  3  4  1  0
  4  5  2  0
  5  6  1  0
  6  7  1  0
  8  7  1  6
  8  9  1  0
  9 10  1  0
 10 11  1  0
 11 12  2  0
 12 13  1  0
 13 14  2  0
  8 15  1  0
 15 16  1  0
 16 17  2  0
 17 18  1  0
 17 19  1  0
 19 20  2  0
 20 21  1  0
 21 22  2  0
 22 23  1  0
  5 24  1  0
 24 25  2  0
 25  2  1  0
 14 10  1  0
 22 16  1  0
M  END
>  <zinc_id>  (1) 
ZINC000001530974

>  <smiles>  (1) 
Clc1ccc(CC[C@H](Cn2ccnc2)Sc2c(Cl)cccc2Cl)cc1

$$$$
