
     RDKit          3D

 17 17  0  0  0  0  0  0  0  0999 V2000
   -1.7125   -2.3470    2.3111 C   0  0  0  0  0  0  0  0  0  0  0  0
   -1.0433   -1.7033    1.2801 O   0  0  0  0  0  0  0  0  0  0  0  0
   -1.7815   -1.1265    0.2585 C   0  0  0  0  0  0  0  0  0  0  0  0
   -3.1546   -1.1823    0.2515 C   0  0  0  0  0  0  0  0  0  0  0  0
   -3.8524   -0.6015   -0.7739 C   0  0  0  0  0  0  0  0  0  0  0  0
   -3.1867    0.0337   -1.7908 C   0  0  0  0  0  0  0  0  0  0  0  0
   -1.8262    0.0746   -1.7597 C   0  0  0  0  0  0  0  0  0  0  0  0
   -1.0749   -0.4971   -0.7457 C   0  0  0  0  0  0  0  0  0  0  0  0
    0.2700   -0.4467   -0.7317 O   0  0  0  0  0  0  0  0  0  0  0  0
    0.9560    0.1710   -1.7177 C   0  0  0  0  0  0  0  0  0  0  0  0
    2.5761    0.0805   -1.4475 C   0  0  2  0  0  0  0  0  0  0  0  0
    2.6828   -1.4410   -1.4334 O   0  0  0  0  0  0  0  0  0  0  0  0
    2.4319    0.1836    0.1986 C   0  0  0  0  0  0  0  0  0  0  0  0
    2.3226    1.5677    0.3335 O   0  0  0  0  0  0  0  0  0  0  0  0
    2.1760    2.2073    1.5532 C   0  0  0  0  0  0  0  0  0  0  0  0
    2.0676    3.5991    1.6711 N   0  0  0  0  0  0  0  0  0  0  0  0
    2.1492    1.4277    2.5430 O   0  0  0  0  0  0  0  0  0  0  0  0
  1  2  1  0
  2  3  1  0
  3  4  2  0
  4  5  1  0
  5  6  2  0
  6  7  1  0
  7  8  2  0
  8  9  1  0
  9 10  1  0
 10 11  1  0
 11 12  1  1
 11 13  1  0
 13 14  1  0
 14 15  1  0
 15 16  1  0
 15 17  2  0
  8  3  1  0
M  END
>  <zinc_id>  (1) 
ZINC000000057340

>  <smiles>  (1) 
COc1ccccc1OC[C@H](O)COC(N)=O

$$$$
