
     RDKit          3D

 22 24  0  0  0  0  0  0  0  0999 V2000
    3.8116    2.0580    0.9187 N   0  0  0  0  0  0  0  0  0  0  0  0
    3.4661    1.5040   -0.1491 S   0  0  0  0  0  0  0  0  0  0  0  0
    4.6570    0.9144   -0.9116 O   0  0  0  0  0  0  0  0  0  0  0  0
    2.8031    2.4481   -1.1397 O   0  0  0  0  0  0  0  0  0  0  0  0
    2.3649    0.1590    0.0540 C   0  0  0  0  0  0  0  0  0  0  0  0
    1.1177    0.1871   -0.5216 C   0  0  0  0  0  0  0  0  0  0  0  0
    0.2165   -0.8431   -0.3891 C   0  0  0  0  0  0  0  0  0  0  0  0
   -1.1383   -0.7932   -1.0254 C   0  0  1  0  0  0  0  0  0  0  0  0
   -1.0415   -0.7290   -2.4118 O   0  0  0  0  0  0  0  0  0  0  0  0
   -1.8505   -2.0013   -0.6936 N   0  0  0  0  0  0  0  0  0  0  0  0
   -3.0311   -1.6591   -0.0019 C   0  0  0  0  0  0  0  0  0  0  0  0
   -3.8846   -2.4702    0.4339 O   0  0  0  0  0  0  0  0  0  0  0  0
   -3.0761   -0.1895    0.1131 C   0  0  0  0  0  0  0  0  0  0  0  0
   -4.0007    0.6430    0.6889 C   0  0  0  0  0  0  0  0  0  0  0  0
   -3.7654    2.0042    0.6378 C   0  0  0  0  0  0  0  0  0  0  0  0
   -2.6284    2.5192    0.0230 C   0  0  0  0  0  0  0  0  0  0  0  0
   -1.7160    1.6714   -0.5468 C   0  0  0  0  0  0  0  0  0  0  0  0
   -1.9357    0.3188   -0.5041 C   0  0  0  0  0  0  0  0  0  0  0  0
    0.6174   -1.9360    0.3615 C   0  0  0  0  0  0  0  0  0  0  0  0
    1.8786   -1.9661    0.9444 C   0  0  0  0  0  0  0  0  0  0  0  0
    2.7719   -0.9274    0.8040 C   0  0  0  0  0  0  0  0  0  0  0  0
    4.3635   -0.9124    1.5119 Cl  0  0  0  0  0  0  0  0  0  0  0  0
  1  2  1  0
  2  3  2  0
  2  4  2  0
  2  5  1  0
  5  6  2  0
  6  7  1  0
  7  8  1  0
  8  9  1  6
  8 10  1  0
 10 11  1  0
 11 12  2  0
 11 13  1  0
 13 14  2  0
 14 15  1  0
 15 16  2  0
 16 17  1  0
 17 18  2  0
  7 19  2  0
 19 20  1  0
 20 21  2  0
 21 22  1  0
 21  5  1  0
 18  8  1  0
 18 13  1  0
M  END
>  <zinc_id>  (1) 
ZINC000000057255

>  <smiles>  (1) 
NS(=O)(=O)c1cc([C@@]2(O)NC(=O)c3ccccc32)ccc1Cl

$$$$
