
     RDKit          2D

 14 14  0  0  0  0  0  0  0  0999 V2000
   -4.5706    1.2504    0.0000 O   0  0  0  0  0  0  0  0  0  0  0  0
   -3.0726    1.3278    0.0000 C   0  0  0  0  0  0  0  0  0  0  0  0
   -2.2566    0.0692    0.0000 C   0  0  0  0  0  0  0  0  0  0  0  0
   -0.7586    0.1466    0.0000 N   0  0  0  0  0  0  0  0  0  0  0  0
   -0.0766    1.4826    0.0000 C   0  0  0  0  0  0  0  0  0  0  0  0
    1.4214    1.5600    0.0000 C   0  0  0  0  0  0  0  0  0  0  0  0
    2.1033    2.8961    0.0000 O   0  0  0  0  0  0  0  0  0  0  0  0
    2.2374    0.3014    0.0000 C   0  0  0  0  0  0  0  0  0  0  0  0
    3.7354    0.3789    0.0000 O   0  0  0  0  0  0  0  0  0  0  0  0
    1.5555   -1.0346    0.0000 C   0  0  0  0  0  0  0  0  0  0  0  0
    2.3715   -2.2932    0.0000 O   0  0  0  0  0  0  0  0  0  0  0  0
    0.0575   -1.1120    0.0000 C   0  0  0  0  0  0  0  0  0  0  0  0
   -0.6245   -2.4480    0.0000 C   0  0  0  0  0  0  0  0  0  0  0  0
   -2.1225   -2.5254    0.0000 O   0  0  0  0  0  0  0  0  0  0  0  0
  1  2  1  0
  2  3  1  0
  3  4  1  0
  4  5  1  0
  5  6  1  0
  6  7  1  6
  6  8  1  0
  8  9  1  1
  8 10  1  0
 10 11  1  6
 10 12  1  0
 12 13  1  1
 13 14  1  0
 12  4  1  0
M  END
>  <zinc_id>  (1) 
ZINC000004097426

>  <smiles>  (1) 
OCCN1C[C@H](O)[C@@H](O)[C@H](O)[C@H]1CO

$$$$
