
     RDKit          3D

 13 13  0  0  0  0  0  0  0  0999 V2000
   -1.7147    1.8454   -1.2870 C   0  0  0  0  0  0  0  0  0  0  0  0
   -0.5659    1.5176   -0.8777 C   0  0  0  0  0  0  0  0  0  0  0  0
    0.5365    2.3132   -0.7370 N   0  0  0  0  0  0  0  0  0  0  0  0
    1.5874    1.6195   -0.2786 C   0  0  0  0  0  0  0  0  0  0  0  0
    1.1746    0.3351   -0.1111 C   0  0  0  0  0  0  0  0  0  0  0  0
    1.9607   -0.7712    0.3629 N   0  0  0  0  0  0  0  0  0  0  0  0
    3.1512   -0.5708    0.6618 O   0  0  0  0  0  0  0  0  0  0  0  0
    1.4108   -1.9937    0.4771 O   0  0  0  0  0  0  0  0  0  0  0  0
   -0.1324    0.3112   -0.4830 N   0  0  0  0  0  0  0  0  0  0  0  0
   -0.8881   -0.9442   -0.4148 C   0  0  0  0  0  0  0  0  0  0  0  0
   -1.5060   -0.9807    1.1188 C   0  0  2  0  0  0  0  0  0  0  0  0
   -2.2497   -2.4624    0.8468 C   0  0  0  0  0  0  0  0  0  0  0  0
   -2.7645   -0.2190    0.7218 O   0  0  0  0  0  0  0  0  0  0  0  0
  1  2  1  0
  2  3  2  0
  3  4  1  0
  4  5  2  0
  5  6  1  0
  6  7  2  0
  6  8  1  0
  5  9  1  0
  9 10  1  0
 10 11  1  0
 11 12  1  6
 11 13  1  0
  9  2  1  0
M  CHG  2   6   1   8  -1
M  END
>  <zinc_id>  (1) 
ZINC000001843047

>  <smiles>  (1) 
Cc1ncc([N+](=O)[O-])n1C[C@H](C)O

$$$$
