
     RDKit          3D

 26 28  0  0  0  0  0  0  0  0999 V2000
   -5.4050    0.3503    3.2870 C   0  0  0  0  0  0  0  0  0  0  0  0
   -4.1200    0.3687    2.5319 C   0  0  0  0  0  0  0  0  0  0  0  0
   -3.0356   -0.2694    3.0981 C   0  0  0  0  0  0  0  0  0  0  0  0
   -1.8474   -0.2632    2.4198 C   0  0  0  0  0  0  0  0  0  0  0  0
   -1.6846    0.3473    1.2044 C   0  0  0  0  0  0  0  0  0  0  0  0
   -0.4175    0.3415    0.5276 C   0  0  0  0  0  0  0  0  0  0  0  0
   -0.3236    0.9349   -0.6737 C   0  0  0  0  0  0  0  0  0  0  0  0
   -1.4526    1.6008   -1.3570 C   0  0  0  0  0  0  0  0  0  0  0  0
   -1.6996    1.0115   -2.6228 N   0  0  0  0  0  0  0  0  0  0  0  0
   -2.7756    1.5281   -3.3857 C   0  0  0  0  0  0  0  0  0  0  0  0
   -3.4750    0.3638   -4.0450 C   0  0  0  0  0  0  0  0  0  0  0  0
   -2.8487   -0.8790   -3.4701 C   0  0  0  0  0  0  0  0  0  0  0  0
   -1.6299   -0.3955   -2.7215 C   0  0  0  0  0  0  0  0  0  0  0  0
    0.7492   -0.2933    1.1262 C   0  0  0  0  0  0  0  0  0  0  0  0
    0.7006   -0.9098    2.3515 C   0  0  0  0  0  0  0  0  0  0  0  0
    1.8113   -1.5058    2.9062 C   0  0  0  0  0  0  0  0  0  0  0  0
    3.0057   -1.4834    2.2126 C   0  0  0  0  0  0  0  0  0  0  0  0
    3.0019   -0.8495    0.9821 C   0  0  0  0  0  0  0  0  0  0  0  0
    4.2646   -0.8075    0.2133 C   0  0  0  0  0  0  0  0  0  0  0  0
    4.3311   -0.2266   -0.9519 C   0  0  0  0  0  0  0  0  0  0  0  0
    5.5486   -0.1615   -1.7410 C   0  0  0  0  0  0  0  0  0  0  0  0
    6.6343   -0.6672   -1.3489 O   0  0  0  0  0  0  0  0  0  0  0  0
    5.5682    0.4678   -2.9747 O   0  0  0  0  0  0  0  0  0  0  0  0
    1.9196   -0.2715    0.4470 N   0  0  0  0  0  0  0  0  0  0  0  0
   -2.7985    0.9727    0.6781 C   0  0  0  0  0  0  0  0  0  0  0  0
   -4.0217    1.0043    1.3065 C   0  0  0  0  0  0  0  0  0  0  0  0
  1  2  1  0
  2  3  2  0
  3  4  1  0
  4  5  2  0
  5  6  1  0
  6  7  2  0
  7  8  1  0
  8  9  1  0
  9 10  1  0
 10 11  1  0
 11 12  1  0
 12 13  1  0
  6 14  1  0
 14 15  2  0
 15 16  1  0
 16 17  2  0
 17 18  1  0
 18 19  1  0
 19 20  2  0
 20 21  1  0
 21 22  2  0
 21 23  1  0
 18 24  2  0
  5 25  1  0
 25 26  2  0
 26  2  1  0
 13  9  1  0
 24 14  1  0
M  END
>  <zinc_id>  (1) 
ZINC000003776633

>  <smiles>  (1) 
Cc1ccc(/C(=C\CN2CCCC2)c2cccc(/C=C/C(=O)O)n2)cc1

$$$$
