
     RDKit          3D

 30 32  0  0  0  0  0  0  0  0999 V2000
   -4.4560   -2.3790    2.8730 C   0  0  0  0  0  0  0  0  0  0  0  0
   -3.4085   -1.8841    1.9292 C   0  0  0  0  0  0  0  0  0  0  0  0
   -3.8612   -0.7119    1.1398 C   0  0  0  0  0  0  0  0  0  0  0  0
   -5.0590   -0.2805    1.3572 O   0  0  0  0  0  0  0  0  0  0  0  0
   -3.0835   -0.0379    0.1830 N   0  0  0  0  0  0  0  0  0  0  0  0
   -3.6343    1.1817   -0.3817 C   0  0  0  0  0  0  0  0  0  0  0  0
   -3.5797    1.4620   -1.7290 C   0  0  0  0  0  0  0  0  0  0  0  0
   -4.1084    2.6272   -2.2512 C   0  0  0  0  0  0  0  0  0  0  0  0
   -4.7041    3.5354   -1.4232 C   0  0  0  0  0  0  0  0  0  0  0  0
   -4.7763    3.2908   -0.0827 C   0  0  0  0  0  0  0  0  0  0  0  0
   -4.2417    2.1183    0.4244 C   0  0  0  0  0  0  0  0  0  0  0  0
   -1.8235   -0.5403   -0.2627 C   0  0  0  0  0  0  0  0  0  0  0  0
   -1.9605   -1.7383   -1.1125 C   0  0  0  0  0  0  0  0  0  0  0  0
   -2.5306   -2.8609   -0.6618 O   0  0  0  0  0  0  0  0  0  0  0  0
   -2.5971   -3.9058   -1.5528 C   0  0  0  0  0  0  0  0  0  0  0  0
   -0.9116   -0.8151    0.9577 C   0  0  0  0  0  0  0  0  0  0  0  0
    0.3932   -0.0561    0.7672 C   0  0  0  0  0  0  0  0  0  0  0  0
    0.9556   -0.5038   -0.4886 N   0  0  0  0  0  0  0  0  0  0  0  0
    2.3659   -0.2447   -0.5942 C   0  0  0  0  0  0  0  0  0  0  0  0
    3.1938   -1.0622    0.3427 C   0  0  0  0  0  0  0  0  0  0  0  0
    4.5877   -0.7120    0.1416 N   0  0  0  0  0  0  0  0  0  0  0  0
    5.4353   -1.2950   -0.7204 N   0  0  0  0  0  0  0  0  0  0  0  0
    6.6176   -0.7080   -0.6211 N   0  0  0  0  0  0  0  0  0  0  0  0
    6.5743    0.2583    0.2935 N   0  0  0  0  0  0  0  0  0  0  0  0
    7.6652    1.1458    0.7068 C   0  0  0  0  0  0  0  0  0  0  0  0
    7.6516    2.3943   -0.1708 C   0  0  0  0  0  0  0  0  0  0  0  0
    5.3097    0.2434    0.7570 C   0  0  0  0  0  0  0  0  0  0  0  0
    4.8855    1.0224    1.6412 O   0  0  0  0  0  0  0  0  0  0  0  0
    0.2007   -0.0729   -1.6211 C   0  0  0  0  0  0  0  0  0  0  0  0
   -1.1000    0.5289   -1.0872 C   0  0  0  0  0  0  0  0  0  0  0  0
  1  2  1  0
  2  3  1  0
  3  4  2  0
  3  5  1  0
  5  6  1  0
  6  7  2  0
  7  8  1  0
  8  9  2  0
  9 10  1  0
 10 11  2  0
  5 12  1  0
 12 13  1  0
 13 14  1  0
 14 15  1  0
 12 16  1  0
 16 17  1  0
 17 18  1  0
 18 19  1  0
 19 20  1  0
 20 21  1  0
 21 22  1  0
 22 23  2  0
 23 24  1  0
 24 25  1  0
 25 26  1  0
 24 27  1  0
 27 28  2  0
 18 29  1  0
 29 30  1  0
 11  6  1  0
 30 12  1  0
 27 21  1  0
M  END
>  <zinc_id>  (1) 
ZINC000000601281

>  <smiles>  (1) 
CCC(=O)N(c1ccccc1)C1(COC)CCN(CCn2nnn(CC)c2=O)CC1

$$$$
