
     RDKit          3D

 14 14  0  0  0  0  0  0  0  0999 V2000
    3.3073    0.5616    0.3789 C   0  0  0  0  0  0  0  0  0  0  0  0
    2.2069   -0.4598   -0.3148 C   0  0  2  0  0  0  0  0  0  0  0  0
    2.3963    0.2182   -1.8070 C   0  0  0  0  0  0  0  0  0  0  0  0
    1.9588    1.9404   -1.6940 S   0  0  0  0  0  0  0  0  0  0  0  0
    0.8833    0.3081    0.0469 C   0  0  0  0  0  0  0  0  0  0  0  0
    0.7983    1.3359    0.6561 O   0  0  0  0  0  0  0  0  0  0  0  0
   -0.2801   -0.3219   -0.4167 N   0  0  0  0  0  0  0  0  0  0  0  0
   -0.4190   -1.5202   -1.2070 C   0  0  0  0  0  0  0  0  0  0  0  0
   -1.4314   -2.2599   -0.3973 C   0  0  0  0  0  0  0  0  0  0  0  0
   -2.4949   -1.2762   -0.1203 C   0  0  0  0  0  0  0  0  0  0  0  0
   -1.7156    0.1644   -0.2053 C   0  0  1  0  0  0  0  0  0  0  0  0
   -1.7075    0.3592    1.3720 C   0  0  0  0  0  0  0  0  0  0  0  0
   -0.9012   -0.2567    2.0269 O   0  0  0  0  0  0  0  0  0  0  0  0
   -2.6009    1.2069    1.9386 O   0  0  0  0  0  0  0  0  0  0  0  0
  2  1  1  1
  2  3  1  0
  3  4  1  0
  2  5  1  0
  5  6  2  0
  5  7  1  0
  7  8  1  0
  8  9  1  0
  9 10  1  0
 10 11  1  0
 11 12  1  1
 12 13  2  0
 12 14  1  0
 11  7  1  0
M  END
>  <zinc_id>  (1) 
ZINC000000057001

>  <smiles>  (1) 
C[C@H](CS)C(=O)N1CCC[C@H]1C(=O)O

$$$$
