
     RDKit          3D

 30 33  0  0  0  0  0  0  0  0999 V2000
    3.0077    3.1930   -2.0228 C   0  0  0  0  0  0  0  0  0  0  0  0
    4.4160    2.6419   -2.0903 C   0  0  0  0  0  0  0  0  0  0  0  0
    4.5577    1.5258   -1.0889 C   0  0  0  0  0  0  0  0  0  0  0  0
    3.5644    0.4037   -1.3949 C   0  0  0  0  0  0  0  0  0  0  0  0
    3.7729   -0.6663   -0.3514 C   0  0  0  0  0  0  0  0  0  0  0  0
    4.6222   -1.6892   -0.4688 N   0  0  0  0  0  0  0  0  0  0  0  0
    4.5876   -2.4565    0.6165 C   0  0  0  0  0  0  0  0  0  0  0  0
    5.4784   -3.8903    0.9723 Cl  0  0  0  0  0  0  0  0  0  0  0  0
    3.6393   -1.8514    1.4676 C   0  0  0  0  0  0  0  0  0  0  0  0
    3.3321   -2.3956    2.8073 C   0  0  0  0  0  0  0  0  0  0  0  0
    2.4181   -1.6200    3.4680 O   0  0  0  0  0  0  0  0  0  0  0  0
    3.1534   -0.7624    0.8557 N   0  0  0  0  0  0  0  0  0  0  0  0
    2.1834    0.2157    1.2710 C   0  0  0  0  0  0  0  0  0  0  0  0
    0.8118   -0.0024    0.7613 C   0  0  0  0  0  0  0  0  0  0  0  0
    0.4264    0.5323   -0.4827 C   0  0  0  0  0  0  0  0  0  0  0  0
   -0.8330    0.3703   -0.9993 C   0  0  0  0  0  0  0  0  0  0  0  0
   -1.8231   -0.3298   -0.3409 C   0  0  0  0  0  0  0  0  0  0  0  0
   -3.1532   -0.5168   -0.8818 C   0  0  0  0  0  0  0  0  0  0  0  0
   -3.4672   -1.6290   -1.6800 C   0  0  0  0  0  0  0  0  0  0  0  0
   -4.7063   -1.8188   -2.2014 C   0  0  0  0  0  0  0  0  0  0  0  0
   -5.7079   -0.9056   -1.9550 C   0  0  0  0  0  0  0  0  0  0  0  0
   -5.4204    0.1879   -1.1770 C   0  0  0  0  0  0  0  0  0  0  0  0
   -4.1401    0.3831   -0.6388 C   0  0  0  0  0  0  0  0  0  0  0  0
   -3.8925    1.5533    0.1791 C   0  0  0  0  0  0  0  0  0  0  0  0
   -4.8732    2.4816    0.4348 N   0  0  0  0  0  0  0  0  0  0  0  0
   -4.3823    3.4358    1.2015 N   0  0  0  0  0  0  0  0  0  0  0  0
   -3.1119    3.1487    1.4475 N   0  0  0  0  0  0  0  0  0  0  0  0
   -2.8312    2.0118    0.8250 N   0  0  0  0  0  0  0  0  0  0  0  0
   -1.4473   -0.8603    0.8892 C   0  0  0  0  0  0  0  0  0  0  0  0
   -0.1820   -0.6907    1.3955 C   0  0  0  0  0  0  0  0  0  0  0  0
  1  2  1  0
  2  3  1  0
  3  4  1  0
  4  5  1  0
  5  6  2  0
  6  7  1  0
  7  8  1  0
  7  9  2  0
  9 10  1  0
 10 11  1  0
  9 12  1  0
 12 13  1  0
 13 14  1  0
 14 15  2  0
 15 16  1  0
 16 17  2  0
 17 18  1  0
 18 19  2  0
 19 20  1  0
 20 21  2  0
 21 22  1  0
 22 23  2  0
 23 24  1  0
 24 25  1  0
 25 26  2  0
 26 27  1  0
 27 28  1  0
 17 29  1  0
 29 30  2  0
 12  5  1  0
 30 14  1  0
 23 18  1  0
 28 24  2  0
M  END
>  <zinc_id>  (1) 
ZINC000003873160

>  <smiles>  (1) 
CCCCc1nc(Cl)c(CO)n1Cc1ccc(-c2ccccc2-c2nn[nH]n2)cc1

$$$$
