
     RDKit          3D

 32 35  0  0  0  0  0  0  0  0999 V2000
   -3.4888    0.6965   -3.0352 N   0  0  0  0  0  0  0  0  0  0  0  0
   -3.1829    0.6636   -1.9404 C   0  0  0  0  0  0  0  0  0  0  0  0
   -2.7731    0.6162   -0.5279 C   0  0  0  0  0  0  0  0  0  0  0  0
   -1.6245    1.4888   -0.2778 C   0  0  0  0  0  0  0  0  0  0  0  0
   -0.3694    1.3072   -0.9862 C   0  0  0  0  0  0  0  0  0  0  0  0
    0.3795    0.1141   -0.8709 N   0  0  0  0  0  0  0  0  0  0  0  0
    1.5043    0.2542   -1.8248 C   0  0  0  0  0  0  0  0  0  0  0  0
    2.6832    0.8532   -1.0965 C   0  0  0  0  0  0  0  0  0  0  0  0
    3.3577   -0.3585   -0.4302 C   0  0  0  0  0  0  0  0  0  0  0  0
    3.7768   -1.3100   -1.4784 C   0  0  0  0  0  0  0  0  0  0  0  0
    3.6705   -1.0317   -2.6896 O   0  0  0  0  0  0  0  0  0  0  0  0
    4.2961   -2.5327   -1.1087 O   0  0  0  0  0  0  0  0  0  0  0  0
    4.4235    0.0573    0.4751 C   0  0  0  0  0  0  0  0  0  0  0  0
    4.5731    1.3858    0.7984 C   0  0  0  0  0  0  0  0  0  0  0  0
    5.5637    1.8132    1.6505 C   0  0  0  0  0  0  0  0  0  0  0  0
    6.4196    0.8814    2.1860 C   0  0  0  0  0  0  0  0  0  0  0  0
    6.2816   -0.4652    1.8691 C   0  0  0  0  0  0  0  0  0  0  0  0
    5.2783   -0.8552    1.0125 C   0  0  0  0  0  0  0  0  0  0  0  0
    2.2000   -1.0243    0.3376 C   0  0  0  0  0  0  0  0  0  0  0  0
    1.0459   -0.0146    0.4266 C   0  0  0  0  0  0  0  0  0  0  0  0
   -3.9498    1.1699    0.2487 C   0  0  0  0  0  0  0  0  0  0  0  0
   -3.8500    1.2553    1.6053 C   0  0  0  0  0  0  0  0  0  0  0  0
   -4.9101    1.7502    2.3324 C   0  0  0  0  0  0  0  0  0  0  0  0
   -6.0921    2.1702    1.7216 C   0  0  0  0  0  0  0  0  0  0  0  0
   -6.1466    2.0642    0.3386 C   0  0  0  0  0  0  0  0  0  0  0  0
   -5.0900    1.5703   -0.3929 C   0  0  0  0  0  0  0  0  0  0  0  0
   -2.5419   -0.7639   -0.0884 C   0  0  0  0  0  0  0  0  0  0  0  0
   -2.4954   -1.0941    1.2527 C   0  0  0  0  0  0  0  0  0  0  0  0
   -2.2835   -2.4133    1.5819 C   0  0  0  0  0  0  0  0  0  0  0  0
   -2.1178   -3.4048    0.6415 C   0  0  0  0  0  0  0  0  0  0  0  0
   -2.1622   -3.0873   -0.7039 C   0  0  0  0  0  0  0  0  0  0  0  0
   -2.3758   -1.7559   -1.0267 C   0  0  0  0  0  0  0  0  0  0  0  0
  1  2  3  0
  2  3  1  0
  3  4  1  0
  4  5  1  0
  5  6  1  0
  6  7  1  0
  7  8  1  0
  8  9  1  0
  9 10  1  0
 10 11  2  0
 10 12  1  0
  9 13  1  0
 13 14  2  0
 14 15  1  0
 15 16  2  0
 16 17  1  0
 17 18  2  0
  9 19  1  0
 19 20  1  0
  3 21  1  0
 21 22  2  0
 22 23  1  0
 23 24  2  0
 24 25  1  0
 25 26  2  0
  3 27  1  0
 27 28  2  0
 28 29  1  0
 29 30  2  0
 30 31  1  0
 31 32  2  0
 20  6  1  0
 26 21  1  0
 32 27  1  0
 18 13  1  0
M  END
>  <zinc_id>  (1) 
ZINC000000601317

>  <smiles>  (1) 
N#CC(CCN1CCC(C(=O)O)(c2ccccc2)CC1)(c1ccccc1)c1ccccc1

$$$$
