
     RDKit          3D

 34 37  0  0  0  0  0  0  0  0999 V2000
   -3.7514    0.0034    2.6875 C   0  0  0  0  0  0  0  0  0  0  0  0
   -2.5521    0.7371    2.4451 N   0  0  0  0  0  0  0  0  0  0  0  0
   -1.8866    1.3199    3.6038 C   0  0  0  0  0  0  0  0  0  0  0  0
   -2.0005    0.8972    1.1735 C   0  0  0  0  0  0  0  0  0  0  0  0
   -0.9111    1.5931    1.1162 O   0  0  0  0  0  0  0  0  0  0  0  0
   -2.4543    0.4007   -0.1149 C   0  0  0  0  0  0  0  0  0  0  0  0
   -1.4026    0.4392   -1.1589 C   0  0  0  0  0  0  0  0  0  0  0  0
   -0.1977   -0.2648   -1.1163 C   0  0  0  0  0  0  0  0  0  0  0  0
    0.9144   -0.2961   -0.3961 N   0  0  0  0  0  0  0  0  0  0  0  0
    1.9063    0.7410   -0.5072 C   0  0  0  0  0  0  0  0  0  0  0  0
    3.1327    0.3239   -1.2926 C   0  0  0  0  0  0  0  0  0  0  0  0
    3.8329   -0.8570   -0.6895 C   0  0  0  0  0  0  0  0  0  0  0  0
    4.1716   -1.8111   -1.6640 O   0  0  0  0  0  0  0  0  0  0  0  0
    5.0818   -0.3808   -0.0016 C   0  0  0  0  0  0  0  0  0  0  0  0
    5.1998   -0.4143    1.3753 C   0  0  0  0  0  0  0  0  0  0  0  0
    6.3605    0.0259    1.9578 C   0  0  0  0  0  0  0  0  0  0  0  0
    7.4336    0.5071    1.2235 C   0  0  0  0  0  0  0  0  0  0  0  0
    8.8909    1.0521    2.0299 Cl  0  0  0  0  0  0  0  0  0  0  0  0
    7.3095    0.5378   -0.1495 C   0  0  0  0  0  0  0  0  0  0  0  0
    6.1469    0.0971   -0.7296 C   0  0  0  0  0  0  0  0  0  0  0  0
    2.9274   -1.4481    0.3751 C   0  0  0  0  0  0  0  0  0  0  0  0
    1.5564   -1.5749   -0.2631 C   0  0  0  0  0  0  0  0  0  0  0  0
   -3.6002    1.2448   -0.5848 C   0  0  0  0  0  0  0  0  0  0  0  0
   -4.0224    1.1267   -1.8939 C   0  0  0  0  0  0  0  0  0  0  0  0
   -5.0766    1.8648   -2.3929 C   0  0  0  0  0  0  0  0  0  0  0  0
   -5.7495    2.7619   -1.5676 C   0  0  0  0  0  0  0  0  0  0  0  0
   -5.3405    2.8923   -0.2548 C   0  0  0  0  0  0  0  0  0  0  0  0
   -4.2781    2.1315    0.2006 C   0  0  0  0  0  0  0  0  0  0  0  0
   -3.0435   -0.9939   -0.0619 C   0  0  0  0  0  0  0  0  0  0  0  0
   -2.2432   -2.1003    0.0592 C   0  0  0  0  0  0  0  0  0  0  0  0
   -2.8125   -3.3498    0.0720 C   0  0  0  0  0  0  0  0  0  0  0  0
   -4.1597   -3.5450   -0.0289 C   0  0  0  0  0  0  0  0  0  0  0  0
   -4.9864   -2.4508   -0.1514 C   0  0  0  0  0  0  0  0  0  0  0  0
   -4.3956   -1.2109   -0.1626 C   0  0  0  0  0  0  0  0  0  0  0  0
  1  2  1  0
  2  3  1  0
  2  4  1  0
  4  5  2  0
  4  6  1  0
  6  7  1  0
  7  8  1  0
  8  9  1  0
  9 10  1  0
 10 11  1  0
 11 12  1  0
 12 13  1  0
 12 14  1  0
 14 15  2  0
 15 16  1  0
 16 17  2  0
 17 18  1  0
 17 19  1  0
 19 20  2  0
 12 21  1  0
 21 22  1  0
  6 23  1  0
 23 24  2  0
 24 25  1  0
 25 26  2  0
 26 27  1  0
 27 28  2  0
  6 29  1  0
 29 30  2  0
 30 31  1  0
 31 32  2  0
 32 33  1  0
 33 34  2  0
 22  9  1  0
 28 23  1  0
 34 29  1  0
 20 14  1  0
M  END
>  <zinc_id>  (1) 
ZINC000000537928

>  <smiles>  (1) 
CN(C)C(=O)C(CCN1CCC(O)(c2ccc(Cl)cc2)CC1)(c1ccccc1)c1ccccc1

$$$$
