
     RDKit          3D

 19 20  0  0  0  0  0  0  0  0999 V2000
    0.1076    4.2890   -1.7530 C   0  0  0  0  0  0  0  0  0  0  0  0
    1.0772    3.3923   -1.1776 N   0  0  0  0  0  0  0  0  0  0  0  0
    1.3642    3.6666    0.1902 C   0  0  0  0  0  0  0  0  0  0  0  0
    0.7558    2.0462   -1.4608 C   0  0  0  0  0  0  0  0  0  0  0  0
   -0.4177    1.5841   -0.7996 C   0  0  0  0  0  0  0  0  0  0  0  0
   -0.8250    0.0693   -1.1340 C   0  0  1  0  0  0  0  0  0  0  0  0
    0.4321   -0.7012   -0.6534 C   0  0  0  0  0  0  0  0  0  0  0  0
    1.4374   -0.1763    0.0412 C   0  0  0  0  0  0  0  0  0  0  0  0
    2.5120   -0.9291    0.4283 C   0  0  0  0  0  0  0  0  0  0  0  0
    2.6077   -2.2682    0.1188 C   0  0  0  0  0  0  0  0  0  0  0  0
    3.9781   -3.2480    0.6071 Cl  0  0  0  0  0  0  0  0  0  0  0  0
    1.5605   -2.8030   -0.6015 C   0  0  0  0  0  0  0  0  0  0  0  0
    0.4979   -2.0079   -0.9706 C   0  0  0  0  0  0  0  0  0  0  0  0
   -1.7150   -0.1756    0.1584 C   0  0  0  0  0  0  0  0  0  0  0  0
   -2.5989   -1.2417    0.0576 C   0  0  0  0  0  0  0  0  0  0  0  0
   -3.4018   -1.5306    1.1363 C   0  0  0  0  0  0  0  0  0  0  0  0
   -3.3063   -0.7611    2.2739 C   0  0  0  0  0  0  0  0  0  0  0  0
   -2.4128    0.2727    2.3000 C   0  0  0  0  0  0  0  0  0  0  0  0
   -1.6529    0.5225    1.2387 N   0  0  0  0  0  0  0  0  0  0  0  0
  1  2  1  0
  2  3  1  0
  2  4  1  0
  4  5  1  0
  6  5  1  1
  6  7  1  0
  7  8  2  0
  8  9  1  0
  9 10  2  0
 10 11  1  0
 10 12  1  0
 12 13  2  0
  6 14  1  0
 14 15  2  0
 15 16  1  0
 16 17  2  0
 17 18  1  0
 18 19  2  0
 13  7  1  0
 19 14  1  0
M  END
>  <zinc_id>  (1) 
ZINC000000113404

>  <smiles>  (1) 
CN(C)CC[C@@H](c1ccc(Cl)cc1)c1ccccn1

$$$$
