
     RDKit          3D

 22 22  0  0  0  0  0  0  0  0999 V2000
    6.9776   -0.0279   -0.7570 C   0  0  0  0  0  0  0  0  0  0  0  0
    6.3203    1.3113   -0.7682 C   0  0  0  0  0  0  0  0  0  0  0  0
    4.9962    1.3547   -1.4580 C   0  0  0  0  0  0  0  0  0  0  0  0
    3.9570    0.4526   -0.8673 C   0  0  0  0  0  0  0  0  0  0  0  0
    4.4134   -0.9445   -0.9233 C   0  0  0  0  0  0  0  0  0  0  0  0
    3.5751   -2.0270   -0.4065 C   0  0  0  0  0  0  0  0  0  0  0  0
    3.2110   -1.9302    1.0000 C   0  0  0  0  0  0  0  0  0  0  0  0
    2.3073   -0.8856    1.4794 C   0  0  0  0  0  0  0  0  0  0  0  0
    0.9067   -0.9664    1.0163 C   0  0  0  0  0  0  0  0  0  0  0  0
    0.4662   -0.3393   -0.0973 C   0  0  0  0  0  0  0  0  0  0  0  0
   -0.8219   -0.4144   -0.5222 C   0  0  0  0  0  0  0  0  0  0  0  0
   -1.7512   -1.1544    0.1887 C   0  0  0  0  0  0  0  0  0  0  0  0
   -3.1225   -1.2063   -0.3050 C   0  0  0  0  0  0  0  0  0  0  0  0
   -4.1139   -0.2686    0.2012 C   0  0  0  0  0  0  0  0  0  0  0  0
   -3.9192    1.1881    0.0366 C   0  0  0  0  0  0  0  0  0  0  0  0
   -2.7615    1.7580    0.6477 N   0  0  0  0  0  0  0  0  0  0  0  0
   -3.9111    1.5471   -1.4593 C   0  0  0  0  0  0  0  0  0  0  0  0
   -5.0474    0.9776   -2.0160 O   0  0  0  0  0  0  0  0  0  0  0  0
   -5.1680    1.8718    0.6065 C   0  0  0  0  0  0  0  0  0  0  0  0
   -5.1548    3.2347    0.3566 O   0  0  0  0  0  0  0  0  0  0  0  0
   -1.3286   -1.8072    1.3330 C   0  0  0  0  0  0  0  0  0  0  0  0
   -0.0306   -1.7240    1.7499 C   0  0  0  0  0  0  0  0  0  0  0  0
  1  2  1  0
  2  3  1  0
  3  4  1  0
  4  5  1  0
  5  6  1  0
  6  7  1  0
  7  8  1  0
  8  9  1  0
  9 10  2  0
 10 11  1  0
 11 12  2  0
 12 13  1  0
 13 14  1  0
 14 15  1  0
 15 16  1  0
 15 17  1  0
 17 18  1  0
 15 19  1  0
 19 20  1  0
 12 21  1  0
 21 22  2  0
 22  9  1  0
M  END
>  <zinc_id>  (1) 
ZINC000001542002

>  <smiles>  (1) 
CCCCCCCCc1ccc(CCC(N)(CO)CO)cc1

$$$$
