
     RDKit          3D

 36 40  0  0  0  0  0  0  0  0999 V2000
    8.6271    0.7518   -1.4522 C   0  0  0  0  0  0  0  0  0  0  0  0
    8.7687    0.4338   -1.0366 C   0  0  0  0  0  0  0  0  0  0  0  0
   10.1813   -0.0665   -0.7309 C   0  0  0  0  0  0  0  0  0  0  0  0
    7.7912   -0.2843   -0.2572 N   0  0  0  0  0  0  0  0  0  0  0  0
    6.9381    0.6410    0.3808 C   0  0  0  0  0  0  0  0  0  0  0  0
    5.6197    0.7201   -0.3630 C   0  0  0  0  0  0  0  0  0  0  0  0
    5.0426   -0.5823   -0.2195 N   0  0  0  0  0  0  0  0  0  0  0  0
    3.7710   -0.7654    0.3556 C   0  0  0  0  0  0  0  0  0  0  0  0
    3.1924   -2.0262    0.4990 C   0  0  0  0  0  0  0  0  0  0  0  0
    1.9827   -2.2561    1.0421 C   0  0  0  0  0  0  0  0  0  0  0  0
    1.1814   -1.1862    1.5252 C   0  0  0  0  0  0  0  0  0  0  0  0
   -0.0100   -1.4322    2.0631 O   0  0  0  0  0  0  0  0  0  0  0  0
   -1.0645   -1.0469    2.5862 C   0  0  0  0  0  0  0  0  0  0  0  0
   -2.1552   -0.1375    1.8565 C   0  0  1  0  0  0  0  0  0  0  0  0
   -1.1927    0.7595    0.9003 C   0  0  0  0  0  0  0  0  0  0  0  0
   -2.0407    0.8611   -0.1518 O   0  0  0  0  0  0  0  0  0  0  0  0
   -3.0730   -0.0371   -0.0887 C   0  0  2  0  0  0  0  0  0  0  0  0
   -3.4009   -0.7298   -1.3353 C   0  0  0  0  0  0  0  0  0  0  0  0
   -3.8164   -0.1267   -2.5084 N   0  0  0  0  0  0  0  0  0  0  0  0
   -2.9763    0.3668   -3.4697 C   0  0  0  0  0  0  0  0  0  0  0  0
   -3.6828    0.8261   -4.4887 N   0  0  0  0  0  0  0  0  0  0  0  0
   -4.9724    0.6220   -4.1700 C   0  0  0  0  0  0  0  0  0  0  0  0
   -5.0568    0.0405   -2.9616 N   0  0  0  0  0  0  0  0  0  0  0  0
   -4.2405    0.4093    0.6661 C   0  0  0  0  0  0  0  0  0  0  0  0
   -4.7614   -0.4482    1.6429 C   0  0  0  0  0  0  0  0  0  0  0  0
   -5.9114   -0.1507    2.3300 C   0  0  0  0  0  0  0  0  0  0  0  0
   -6.6164    1.0057    2.0980 C   0  0  0  0  0  0  0  0  0  0  0  0
   -8.0814    1.3368    3.0031 Cl  0  0  0  0  0  0  0  0  0  0  0  0
   -6.1206    1.8593    1.1454 C   0  0  0  0  0  0  0  0  0  0  0  0
   -4.9632    1.5573    0.4574 C   0  0  0  0  0  0  0  0  0  0  0  0
   -4.3402    2.7483   -0.6710 Cl  0  0  0  0  0  0  0  0  0  0  0  0
   -2.4631   -1.1130    0.7243 O   0  0  0  0  0  0  0  0  0  0  0  0
    1.7791    0.0622    1.3715 C   0  0  0  0  0  0  0  0  0  0  0  0
    3.0021    0.2861    0.8217 C   0  0  0  0  0  0  0  0  0  0  0  0
    5.8074   -1.6968   -0.6823 C   0  0  0  0  0  0  0  0  0  0  0  0
    7.2550   -1.4101   -0.8826 C   0  0  0  0  0  0  0  0  0  0  0  0
  1  2  1  0
  2  3  1  0
  2  4  1  0
  4  5  1  0
  5  6  1  0
  6  7  1  0
  7  8  1  0
  8  9  2  0
  9 10  1  0
 10 11  2  0
 11 12  1  0
 12 13  1  0
 14 13  1  1
 14 15  1  0
 15 16  1  0
 16 17  1  0
 17 18  1  6
 18 19  1  0
 19 20  1  0
 20 21  2  0
 21 22  1  0
 22 23  2  0
 17 24  1  0
 24 25  2  0
 25 26  1  0
 26 27  2  0
 27 28  1  0
 27 29  1  0
 29 30  2  0
 30 31  1  0
 17 32  1  0
 11 33  1  0
 33 34  2  0
  7 35  1  0
 35 36  1  0
 36  4  1  0
 34  8  1  0
 32 14  1  0
 23 19  1  0
 30 24  1  0
M  END
>  <zinc_id>  (1) 
ZINC000003873936

>  <smiles>  (1) 
CC(C)N1CCN(c2ccc(OC[C@H]3CO[C@](Cn4cncn4)(c4ccc(Cl)cc4Cl)O3)cc2)CC1

$$$$
