
     RDKit          3D

 33 34  0  0  0  0  0  0  0  0999 V2000
    0.2726   -2.3701   -0.7277 C   0  0  0  0  0  0  0  0  0  0  0  0
    0.2937   -2.2477   -0.6912 C   0  0  0  0  0  0  0  0  0  0  0  0
    0.9469   -2.7871    0.5621 C   0  0  0  0  0  0  0  0  0  0  0  0
   -0.8255   -1.3391   -0.4102 C   0  0  0  0  0  0  0  0  0  0  0  0
   -2.0941   -1.7765   -0.4169 N   0  0  0  0  0  0  0  0  0  0  0  0
   -3.1887   -1.0518   -0.1733 C   0  0  0  0  0  0  0  0  0  0  0  0
   -4.4966   -1.5773   -0.1956 N   0  0  0  0  0  0  0  0  0  0  0  0
   -5.6385   -0.7744    0.0685 C   0  0  0  0  0  0  0  0  0  0  0  0
   -4.6905   -3.2324   -0.5526 S   0  0  0  0  0  0  0  0  0  0  0  0
   -4.0796   -3.6192   -2.1929 C   0  0  0  0  0  0  0  0  0  0  0  0
   -3.8724   -4.0834    0.4184 O   0  0  0  0  0  0  0  0  0  0  0  0
   -6.1309   -3.6803   -0.4901 O   0  0  0  0  0  0  0  0  0  0  0  0
   -2.9886    0.2631    0.1091 N   0  0  0  0  0  0  0  0  0  0  0  0
   -1.7617    0.7706    0.1344 C   0  0  0  0  0  0  0  0  0  0  0  0
   -1.6027    2.1823    0.4385 C   0  0  0  0  0  0  0  0  0  0  0  0
   -2.4358    3.1315   -0.1677 C   0  0  0  0  0  0  0  0  0  0  0  0
   -2.3241    4.4675    0.0838 C   0  0  0  0  0  0  0  0  0  0  0  0
   -1.3857    4.9514    0.9472 C   0  0  0  0  0  0  0  0  0  0  0  0
   -1.2721    6.2816    1.1998 F   0  0  0  0  0  0  0  0  0  0  0  0
   -0.5484    4.0529    1.5631 C   0  0  0  0  0  0  0  0  0  0  0  0
   -0.6789    2.7044    1.2940 C   0  0  0  0  0  0  0  0  0  0  0  0
   -0.6245    0.0015   -0.1220 C   0  0  0  0  0  0  0  0  0  0  0  0
    0.6585    0.6319   -0.0763 C   0  0  0  0  0  0  0  0  0  0  0  0
    1.8665    0.2706   -0.2545 C   0  0  0  0  0  0  0  0  0  0  0  0
    2.9041    1.4992   -0.0508 C   0  0  1  0  0  0  0  0  0  0  0  0
    3.6230    0.8566    1.1001 O   0  0  0  0  0  0  0  0  0  0  0  0
    3.9972    1.0863   -1.1886 C   0  0  0  0  0  0  0  0  0  0  0  0
    4.5599   -0.3801   -0.7864 C   0  0  1  0  0  0  0  0  0  0  0  0
    5.4794   -0.4391   -2.0198 O   0  0  0  0  0  0  0  0  0  0  0  0
    5.8092    0.2104    0.1433 C   0  0  0  0  0  0  0  0  0  0  0  0
    6.4824   -1.0169    0.6286 C   0  0  0  0  0  0  0  0  0  0  0  0
    6.1673   -2.1722    0.3797 O   0  0  0  0  0  0  0  0  0  0  0  0
    7.5783   -0.8141    1.4459 O   0  0  0  0  0  0  0  0  0  0  0  0
  1  2  1  0
  2  3  1  0
  2  4  1  0
  4  5  2  0
  5  6  1  0
  6  7  1  0
  7  8  1  0
  7  9  1  0
  9 10  1  0
  9 11  2  0
  9 12  2  0
  6 13  2  0
 13 14  1  0
 14 15  1  0
 15 16  2  0
 16 17  1  0
 17 18  2  0
 18 19  1  0
 18 20  1  0
 20 21  2  0
 14 22  2  0
 22 23  1  0
 23 24  2  0
 24 25  1  0
 25 26  1  1
 25 27  1  0
 27 28  1  0
 28 29  1  6
 28 30  1  0
 30 31  1  0
 31 32  2  0
 31 33  1  0
 22  4  1  0
 21 15  1  0
M  END
>  <zinc_id>  (1) 
ZINC000001535101

>  <smiles>  (1) 
CC(C)c1nc(N(C)S(C)(=O)=O)nc(-c2ccc(F)cc2)c1/C=C/[C@@H](O)C[C@@H](O)CC(=O)O

$$$$
