
     RDKit          3D

 27 30  0  0  0  0  0  0  0  0999 V2000
   -5.4739    2.4043    1.4554 C   0  0  0  0  0  0  0  0  0  0  0  0
   -4.9708    2.3456    0.1451 N   0  0  0  0  0  0  0  0  0  0  0  0
   -5.3437    1.1671   -0.6081 C   0  0  0  0  0  0  0  0  0  0  0  0
   -4.0786    0.3305   -0.6583 C   0  0  0  0  0  0  0  0  0  0  0  0
   -3.7109   -0.0399    0.6882 C   0  0  0  0  0  0  0  0  0  0  0  0
   -2.4302    0.7711    1.2564 C   0  0  1  0  0  0  0  0  0  0  0  0
   -1.3371   -0.0334    0.5566 N   0  0  0  0  0  0  0  0  0  0  0  0
   -0.3964    0.5255   -0.1395 N   0  0  0  0  0  0  0  0  0  0  0  0
    0.6000   -0.1356   -0.7679 C   0  0  0  0  0  0  0  0  0  0  0  0
    1.6252    0.5993   -1.5135 C   0  0  0  0  0  0  0  0  0  0  0  0
    2.9057    0.7799   -0.8158 C   0  0  0  0  0  0  0  0  0  0  0  0
    3.0001    1.8747    0.0419 C   0  0  0  0  0  0  0  0  0  0  0  0
    4.1443    2.1243    0.7285 C   0  0  0  0  0  0  0  0  0  0  0  0
    5.2388    1.3061    0.5974 C   0  0  0  0  0  0  0  0  0  0  0  0
    6.6821    1.6878    1.5164 Cl  0  0  0  0  0  0  0  0  0  0  0  0
    5.1981    0.1970   -0.2476 C   0  0  0  0  0  0  0  0  0  0  0  0
    4.0128   -0.0102   -0.9209 C   0  0  0  0  0  0  0  0  0  0  0  0
    0.6426   -1.4928   -0.6805 C   0  0  0  0  0  0  0  0  0  0  0  0
    1.6372   -2.2200   -1.3061 C   0  0  0  0  0  0  0  0  0  0  0  0
    1.6689   -3.5840   -1.2135 C   0  0  0  0  0  0  0  0  0  0  0  0
    0.7100   -4.2365   -0.4970 C   0  0  0  0  0  0  0  0  0  0  0  0
   -0.2883   -3.5032    0.1303 C   0  0  0  0  0  0  0  0  0  0  0  0
   -0.3492   -2.1359    0.0576 C   0  0  0  0  0  0  0  0  0  0  0  0
   -1.3447   -1.3709    0.6770 C   0  0  0  0  0  0  0  0  0  0  0  0
   -2.2142   -1.9875    1.3288 O   0  0  0  0  0  0  0  0  0  0  0  0
   -2.4813    2.0007    0.2167 C   0  0  0  0  0  0  0  0  0  0  0  0
   -3.6461    2.6360   -0.0277 C   0  0  0  0  0  0  0  0  0  0  0  0
  1  2  1  0
  2  3  1  0
  3  4  1  0
  4  5  1  0
  5  6  1  0
  6  7  1  6
  7  8  1  0
  8  9  2  0
  9 10  1  0
 10 11  1  0
 11 12  2  0
 12 13  1  0
 13 14  2  0
 14 15  1  0
 14 16  1  0
 16 17  2  0
  9 18  1  0
 18 19  2  0
 19 20  1  0
 20 21  2  0
 21 22  1  0
 22 23  2  0
 23 24  1  0
 24 25  2  0
  6 26  1  0
 26 27  1  0
 27  2  1  0
 24  7  1  0
 17 11  1  0
 23 18  1  0
M  END
>  <zinc_id>  (1) 
ZINC000000601229

>  <smiles>  (1) 
CN1CCC[C@@H](n2nc(Cc3ccc(Cl)cc3)c3ccccc3c2=O)CC1

$$$$
