
     RDKit          3D

 10 10  0  0  0  0  0  0  0  0999 V2000
    2.3572   -1.5394   -0.2533 N   0  0  0  0  0  0  0  0  0  0  0  0
    1.7210   -0.2919   -0.0573 C   0  0  0  0  0  0  0  0  0  0  0  0
    2.4317    0.7225    0.0931 O   0  0  0  0  0  0  0  0  0  0  0  0
    0.2710   -0.2196   -0.0357 C   0  0  0  0  0  0  0  0  0  0  0  0
   -0.4997   -1.3577   -0.2045 C   0  0  0  0  0  0  0  0  0  0  0  0
   -1.8747   -1.2967   -0.1851 C   0  0  0  0  0  0  0  0  0  0  0  0
   -2.5574   -0.1133    0.0013 C   0  0  0  0  0  0  0  0  0  0  0  0
   -1.7941    1.0222    0.1698 C   0  0  0  0  0  0  0  0  0  0  0  0
   -0.4156    0.9653    0.1510 C   0  0  0  0  0  0  0  0  0  0  0  0
    0.3607    2.1085    0.3207 O   0  0  0  0  0  0  0  0  0  0  0  0
  1  2  1  0
  2  3  2  0
  2  4  1  0
  4  5  2  0
  5  6  1  0
  6  7  2  0
  7  8  1  0
  8  9  2  0
  9 10  1  0
  9  4  1  0
M  END
>  <zinc_id>  (1) 
ZINC000000002055

>  <smiles>  (1) 
NC(=O)c1ccccc1O

$$$$
