
     RDKit          3D

 11 11  0  0  0  0  0  0  0  0999 V2000
   -3.2939   -0.8438    0.1347 C   0  0  0  0  0  0  0  0  0  0  0  0
   -1.9508   -0.1878   -0.1710 C   0  0  0  0  0  0  0  0  0  0  0  0
   -1.6055   -0.2591   -1.6321 C   0  0  0  0  0  0  0  0  0  0  0  0
   -2.0382    1.1734    0.3225 N   0  0  0  0  0  0  0  0  0  0  0  0
   -0.9269   -0.9520    0.6807 C   0  0  0  0  0  0  0  0  0  0  0  0
    0.4140   -0.3398    0.4121 C   0  0  0  0  0  0  0  0  0  0  0  0
    0.8943    0.7036    1.1541 C   0  0  0  0  0  0  0  0  0  0  0  0
    2.1425    1.2587    0.8890 C   0  0  0  0  0  0  0  0  0  0  0  0
    2.8486    0.6904   -0.1585 C   0  0  0  0  0  0  0  0  0  0  0  0
    2.3705   -0.3543   -0.9034 C   0  0  0  0  0  0  0  0  0  0  0  0
    1.1454   -0.8893   -0.6331 C   0  0  0  0  0  0  0  0  0  0  0  0
  1  2  1  0
  2  3  1  0
  2  4  1  0
  2  5  1  0
  5  6  1  0
  6  7  2  0
  7  8  1  0
  8  9  2  0
  9 10  1  0
 10 11  2  0
 11  6  1  0
M  END
>  <zinc_id>  (1) 
ZINC000008403947

>  <smiles>  (1) 
CC(C)(N)Cc1ccccc1

$$$$
