
     RDKit          3D

 23 26  0  0  0  0  0  0  0  0999 V2000
   -3.2088    2.9578   -0.8279 C   0  0  0  0  0  0  0  0  0  0  0  0
   -3.2444    1.9965   -0.4681 C   0  0  0  0  0  0  0  0  0  0  0  0
   -3.2902    0.5932    0.0286 C   0  0  2  0  0  0  0  0  0  0  0  0
   -4.4120   -0.0839   -0.4263 O   0  0  0  0  0  0  0  0  0  0  0  0
   -3.3888    0.5995    1.5610 C   0  0  0  0  0  0  0  0  0  0  0  0
   -2.0566    0.0971    2.0812 C   0  0  0  0  0  0  0  0  0  0  0  0
   -1.1483    0.6855    0.8666 C   0  0  1  0  0  0  0  0  0  0  0  0
    0.0226   -0.5274    0.9833 C   0  0  2  0  0  0  0  0  0  0  0  0
    0.8605    0.2515    2.1112 C   0  0  0  0  0  0  0  0  0  0  0  0
    2.0223   -0.7390    2.3280 C   0  0  0  0  0  0  0  0  0  0  0  0
    2.7946   -0.5456    1.0024 C   0  0  0  0  0  0  0  0  0  0  0  0
    3.9245    0.0371    0.9970 C   0  0  0  0  0  0  0  0  0  0  0  0
    4.6278    0.2104   -0.2480 C   0  0  0  0  0  0  0  0  0  0  0  0
    5.8313    0.1073   -0.4735 O   0  0  0  0  0  0  0  0  0  0  0  0
    3.5964    0.5624   -1.3096 C   0  0  0  0  0  0  0  0  0  0  0  0
    2.8625   -0.6927   -1.4732 C   0  0  0  0  0  0  0  0  0  0  0  0
    2.0206   -1.1429   -0.2160 C   0  0  2  0  0  0  0  0  0  0  0  0
    0.9148    0.1432   -0.2963 C   0  0  1  0  0  0  0  0  0  0  0  0
    0.0115   -0.6022   -1.4233 C   0  0  0  0  0  0  0  0  0  0  0  0
   -1.3164    0.0794   -1.4644 C   0  0  0  0  0  0  0  0  0  0  0  0
   -2.0522   -0.1645   -0.2202 C   0  0  2  0  0  0  0  0  0  0  0  0
   -2.1409   -1.5359    0.2867 C   0  0  0  0  0  0  0  0  0  0  0  0
   -3.2307   -2.2866   -0.3515 C   0  0  0  0  0  0  0  0  0  0  0  0
  1  2  3  0
  2  3  1  0
  3  4  1  6
  3  5  1  0
  5  6  1  0
  7  6  1  1
  7  8  1  0
  8  9  1  1
  9 10  1  0
 10 11  1  0
 11 12  2  0
 12 13  1  0
 13 14  2  0
 13 15  1  0
 15 16  1  0
 17 16  1  6
 17 18  1  0
 18 19  1  6
 19 20  1  0
 20 21  1  0
 21 22  1  1
 22 23  1  0
 21  3  1  0
 21  7  1  0
 18  8  1  0
 17 11  1  0
M  END
>  <zinc_id>  (1) 
ZINC000003814395

>  <smiles>  (1) 
C#C[C@]1(O)CC[C@H]2[C@@H]3CCC4=CC(=O)CC[C@@H]4[C@H]3CC[C@@]21CC

$$$$
