
     RDKit          2D

  9  9  0  0  0  0  0  0  0  0999 V2000
   -2.4269   -1.6003    0.0000 O   0  0  0  0  0  0  0  0  0  0  0  0
   -1.9333   -0.1838    0.0000 C   0  0  0  0  0  0  0  0  0  0  0  0
   -2.9132    0.9519    0.0000 O   0  0  0  0  0  0  0  0  0  0  0  0
   -0.4598    0.0969    0.0000 C   0  0  0  0  0  0  0  0  0  0  0  0
    0.6334   -0.9301    0.0000 C   0  0  0  0  0  0  0  0  0  0  0  0
    1.9481   -0.2077    0.0000 C   0  0  0  0  0  0  0  0  0  0  0  0
    3.3052   -0.8467    0.0000 O   0  0  0  0  0  0  0  0  0  0  0  0
    1.6673    1.2657    0.0000 C   0  0  0  0  0  0  0  0  0  0  0  0
    0.1792    1.4541    0.0000 N   0  0  0  0  0  0  0  0  0  0  0  0
  1  2  2  0
  2  3  1  0
  4  2  1  6
  4  5  1  0
  5  6  1  0
  6  7  1  1
  6  8  1  0
  8  9  1  0
  9  4  1  0
M  END
>  <zinc_id>  (1) 
ZINC000000895457

>  <smiles>  (1) 
O=C(O)[C@H]1C[C@H](O)CN1

$$$$
