
     RDKit          3D

 27 29  0  0  0  0  0  0  0  0999 V2000
    6.8515   -2.6154   -0.2978 C   0  0  0  0  0  0  0  0  0  0  0  0
    5.6372   -1.7912   -0.5107 C   0  0  0  0  0  0  0  0  0  0  0  0
    5.7050   -0.5887   -0.9279 O   0  0  0  0  0  0  0  0  0  0  0  0
    4.3476   -2.2632   -0.2737 O   0  0  0  0  0  0  0  0  0  0  0  0
    3.2405   -1.4690   -0.4825 C   0  0  0  0  0  0  0  0  0  0  0  0
    2.5554   -1.3859   -1.6594 C   0  0  0  0  0  0  0  0  0  0  0  0
    1.4607   -0.5521   -1.7415 C   0  0  0  0  0  0  0  0  0  0  0  0
    1.0168    0.2147   -0.6742 C   0  0  0  0  0  0  0  0  0  0  0  0
   -0.1474    1.1040   -0.7545 C   0  0  0  0  0  0  0  0  0  0  0  0
   -1.4220    0.4607   -0.3943 C   0  0  0  0  0  0  0  0  0  0  0  0
   -2.1866   -0.1608   -1.3728 C   0  0  0  0  0  0  0  0  0  0  0  0
   -3.3732   -0.7600   -1.0394 C   0  0  0  0  0  0  0  0  0  0  0  0
   -3.8629   -0.7789    0.2560 C   0  0  0  0  0  0  0  0  0  0  0  0
   -5.0726   -1.4148    0.4693 O   0  0  0  0  0  0  0  0  0  0  0  0
   -5.1958   -2.7575    0.7836 C   0  0  0  0  0  0  0  0  0  0  0  0
   -6.5013   -3.4291    1.0105 C   0  0  0  0  0  0  0  0  0  0  0  0
   -4.1426   -3.4353    0.8798 O   0  0  0  0  0  0  0  0  0  0  0  0
   -3.1182   -0.1707    1.2240 C   0  0  0  0  0  0  0  0  0  0  0  0
   -1.9072    0.4430    0.8945 C   0  0  0  0  0  0  0  0  0  0  0  0
    0.0566    2.4060   -0.0959 C   0  0  0  0  0  0  0  0  0  0  0  0
   -0.2400    2.6414    1.2306 C   0  0  0  0  0  0  0  0  0  0  0  0
   -0.0356    3.8857    1.8256 C   0  0  0  0  0  0  0  0  0  0  0  0
    0.4793    4.9183    1.0690 C   0  0  0  0  0  0  0  0  0  0  0  0
    0.7655    4.6523   -0.2524 C   0  0  0  0  0  0  0  0  0  0  0  0
    0.5580    3.4374   -0.8048 N   0  0  0  0  0  0  0  0  0  0  0  0
    1.7261    0.1147    0.5087 C   0  0  0  0  0  0  0  0  0  0  0  0
    2.8055   -0.7054    0.5946 C   0  0  0  0  0  0  0  0  0  0  0  0
  1  2  1  0
  2  3  2  0
  2  4  1  0
  4  5  1  0
  5  6  2  0
  6  7  1  0
  7  8  2  0
  8  9  1  0
  9 10  1  0
 10 11  2  0
 11 12  1  0
 12 13  2  0
 13 14  1  0
 14 15  1  0
 15 16  1  0
 15 17  2  0
 13 18  1  0
 18 19  2  0
  9 20  1  0
 20 21  2  0
 21 22  1  0
 22 23  2  0
 23 24  1  0
 24 25  2  0
  8 26  1  0
 26 27  2  0
 27  5  1  0
 19 10  1  0
 25 20  1  0
M  END
>  <zinc_id>  (1) 
ZINC000003830321

>  <smiles>  (1) 
CC(=O)Oc1ccc(C(c2ccc(OC(C)=O)cc2)c2ccccn2)cc1

$$$$
