
     RDKit          3D

 21 21  0  0  0  0  0  0  0  0999 V2000
   -0.3631   -3.4774    2.9616 N   0  0  0  0  0  0  0  0  0  0  0  0
   -0.2683   -2.5810    2.2232 C   0  0  0  0  0  0  0  0  0  0  0  0
   -0.1467   -1.4593    1.3210 C   0  0  0  0  0  0  0  0  0  0  0  0
    1.1044   -0.9729    0.9374 C   0  0  0  0  0  0  0  0  0  0  0  0
    1.2368    0.0963    0.0776 C   0  0  0  0  0  0  0  0  0  0  0  0
    2.4909    0.6224   -0.3380 N   0  0  0  0  0  0  0  0  0  0  0  0
    3.7194    0.0824    0.1046 C   0  0  0  0  0  0  0  0  0  0  0  0
    3.6558   -0.8963    0.8920 O   0  0  0  0  0  0  0  0  0  0  0  0
    4.9696    0.6568   -0.3499 C   0  0  0  0  0  0  0  0  0  0  0  0
    4.9593    1.6351   -1.1374 O   0  0  0  0  0  0  0  0  0  0  0  0
    6.2119    0.1489    0.0668 O   0  0  0  0  0  0  0  0  0  0  0  0
    0.0766    0.6769   -0.3972 C   0  0  0  0  0  0  0  0  0  0  0  0
    0.1709    2.0464   -1.4990 Cl  0  0  0  0  0  0  0  0  0  0  0  0
   -1.1722    0.2399   -0.0533 C   0  0  0  0  0  0  0  0  0  0  0  0
   -2.3651    0.8565   -0.5571 N   0  0  0  0  0  0  0  0  0  0  0  0
   -3.6393    0.3623   -0.1675 C   0  0  0  0  0  0  0  0  0  0  0  0
   -3.6409   -0.6254    0.6275 O   0  0  0  0  0  0  0  0  0  0  0  0
   -4.8492    0.9705   -0.6646 C   0  0  0  0  0  0  0  0  0  0  0  0
   -4.7819    1.9452   -1.4487 O   0  0  0  0  0  0  0  0  0  0  0  0
   -6.1031    0.5053   -0.2982 O   0  0  0  0  0  0  0  0  0  0  0  0
   -1.2660   -0.8325    0.8094 C   0  0  0  0  0  0  0  0  0  0  0  0
  1  2  3  0
  2  3  1  0
  3  4  2  0
  4  5  1  0
  5  6  1  0
  6  7  1  0
  7  8  2  0
  7  9  1  0
  9 10  2  0
  9 11  1  0
  5 12  2  0
 12 13  1  0
 12 14  1  0
 14 15  1  0
 15 16  1  0
 16 17  2  0
 16 18  1  0
 18 19  2  0
 18 20  1  0
 14 21  2  0
 21  3  1  0
M  END
>  <zinc_id>  (1) 
ZINC000002000707

>  <smiles>  (1) 
N#Cc1cc(NC(=O)C(=O)O)c(Cl)c(NC(=O)C(=O)O)c1

$$$$
