
     RDKit          2D

 17 18  0  0  0  0  0  0  0  0999 V2000
   -5.2259   -0.0425    0.0000 O   0  0  0  0  0  0  0  0  0  0  0  0
   -3.7273    0.0224    0.0000 C   0  0  0  0  0  0  0  0  0  0  0  0
   -3.0342    1.3527    0.0000 N   0  0  0  0  0  0  0  0  0  0  0  0
   -1.5357    1.4176    0.0000 C   0  0  0  0  0  0  0  0  0  0  0  0
   -0.8426    2.7479    0.0000 O   0  0  0  0  0  0  0  0  0  0  0  0
   -0.7301    0.1523    0.0000 N   0  0  0  0  0  0  0  0  0  0  0  0
    0.7685    0.2172    0.0000 C   0  0  0  0  0  0  0  0  0  0  0  0
    1.5968    1.4678    0.0000 C   0  0  0  0  0  0  0  0  0  0  0  0
    3.0421    1.0664    0.0000 C   0  0  0  0  0  0  0  0  0  0  0  0
    4.2163    1.9998    0.0000 O   0  0  0  0  0  0  0  0  0  0  0  0
    3.1070   -0.4322    0.0000 C   0  0  0  0  0  0  0  0  0  0  0  0
    4.3576   -1.2605    0.0000 C   0  0  0  0  0  0  0  0  0  0  0  0
    4.2655   -2.7577    0.0000 O   0  0  0  0  0  0  0  0  0  0  0  0
    1.7018   -0.9570    0.0000 O   0  0  0  0  0  0  0  0  0  0  0  0
   -1.4232   -1.1780    0.0000 C   0  0  0  0  0  0  0  0  0  0  0  0
   -2.9218   -1.2429    0.0000 C   0  0  0  0  0  0  0  0  0  0  0  0
   -3.6149   -2.5732    0.0000 F   0  0  0  0  0  0  0  0  0  0  0  0
  1  2  2  0
  2  3  1  0
  3  4  1  0
  4  5  2  0
  4  6  1  0
  7  6  1  1
  7  8  1  0
  8  9  1  0
  9 10  1  6
  9 11  1  0
 11 12  1  1
 12 13  1  0
 11 14  1  0
  6 15  1  0
 15 16  2  0
 16 17  1  0
 16  2  1  0
 14  7  1  0
M  END
>  <zinc_id>  (1) 
ZINC000003813010

>  <smiles>  (1) 
O=c1[nH]c(=O)n([C@H]2C[C@H](O)[C@@H](CO)O2)cc1F

$$$$
