
     RDKit          3D

 19 19  0  0  0  0  0  0  0  0999 V2000
    4.8807    1.6898   -0.4162 C   0  0  0  0  0  0  0  0  0  0  0  0
    4.8371    1.4880    0.0336 C   0  0  0  0  0  0  0  0  0  0  0  0
    4.2262    0.4848    1.0003 C   0  0  0  0  0  0  0  0  0  0  0  0
    2.8093    0.6221    1.1244 N   0  0  0  0  0  0  0  0  0  0  0  0
    2.2819    0.1629   -0.2985 C   0  0  1  0  0  0  0  0  0  0  0  0
    2.8921   -1.3867   -0.1012 C   0  0  0  0  0  0  0  0  0  0  0  0
    0.8246   -0.2320    0.1527 C   0  0  0  0  0  0  0  0  0  0  0  0
    0.3805   -0.1533    1.2539 O   0  0  0  0  0  0  0  0  0  0  0  0
    0.0163   -0.7137   -0.8650 N   0  0  0  0  0  0  0  0  0  0  0  0
   -1.3464   -1.1015   -0.5301 C   0  0  0  0  0  0  0  0  0  0  0  0
   -1.7701   -2.3201   -0.1291 C   0  0  0  0  0  0  0  0  0  0  0  0
   -0.7934   -3.4628    0.0161 C   0  0  0  0  0  0  0  0  0  0  0  0
   -3.0993   -2.4805    0.1381 C   0  0  0  0  0  0  0  0  0  0  0  0
   -3.7649   -0.9410   -0.1664 S   0  0  0  0  0  0  0  0  0  0  0  0
   -2.3288   -0.1398   -0.6248 C   0  0  0  0  0  0  0  0  0  0  0  0
   -2.2100    1.2646   -1.0249 C   0  0  0  0  0  0  0  0  0  0  0  0
   -1.1267    1.7528   -1.3398 O   0  0  0  0  0  0  0  0  0  0  0  0
   -3.3504    2.0508   -1.0452 O   0  0  0  0  0  0  0  0  0  0  0  0
   -3.3586    3.4155   -1.4137 C   0  0  0  0  0  0  0  0  0  0  0  0
  1  2  1  0
  2  3  1  0
  3  4  1  0
  4  5  1  0
  5  6  1  1
  5  7  1  0
  7  8  2  0
  7  9  1  0
  9 10  1  0
 10 11  1  0
 11 12  1  0
 11 13  2  0
 13 14  1  0
 14 15  1  0
 15 16  1  0
 16 17  2  0
 16 18  1  0
 18 19  1  0
 15 10  2  0
M  END
>  <zinc_id>  (1) 
ZINC000002019953

>  <smiles>  (1) 
CCCN[C@@H](C)C(=O)Nc1c(C)csc1C(=O)OC

$$$$
