
     RDKit          2D

 28 31  0  0  0  0  0  0  0  0999 V2000
   -5.1275   -2.0302    0.0000 C   0  0  0  0  0  0  0  0  0  0  0  0
   -3.9468   -1.1050    0.0000 C   0  0  0  0  0  0  0  0  0  0  0  0
   -4.1576    0.3801    0.0000 C   0  0  0  0  0  0  0  0  0  0  0  0
   -5.5492    0.9401    0.0000 C   0  0  0  0  0  0  0  0  0  0  0  0
   -5.7600    2.4252    0.0000 C   0  0  0  0  0  0  0  0  0  0  0  0
   -4.5793    3.3503    0.0000 O   0  0  0  0  0  0  0  0  0  0  0  0
   -7.1516    2.9851    0.0000 O   0  0  0  0  0  0  0  0  0  0  0  0
   -2.5552   -1.6650    0.0000 C   0  0  0  0  0  0  0  0  0  0  0  0
   -2.1903   -3.1199    0.0000 C   0  0  0  0  0  0  0  0  0  0  0  0
   -0.6938   -3.2225    0.0000 C   0  0  0  0  0  0  0  0  0  0  0  0
   -0.1339   -1.8309    0.0000 C   0  0  0  0  0  0  0  0  0  0  0  0
    1.2750   -1.3159    0.0000 C   0  0  0  0  0  0  0  0  0  0  0  0
    2.4254   -2.2785    0.0000 C   0  0  0  0  0  0  0  0  0  0  0  0
    2.1670   -3.7560    0.0000 O   0  0  0  0  0  0  0  0  0  0  0  0
    3.8342   -1.7635    0.0000 C   0  0  0  0  0  0  0  0  0  0  0  0
    4.0926   -0.2859    0.0000 C   0  0  0  0  0  0  0  0  0  0  0  0
    5.5014    0.2291    0.0000 C   0  0  0  0  0  0  0  0  0  0  0  0
    5.7598    1.7067    0.0000 C   0  0  0  0  0  0  0  0  0  0  0  0
    7.1687    2.2217    0.0000 O   0  0  0  0  0  0  0  0  0  0  0  0
    4.6094    2.6692    0.0000 C   0  0  0  0  0  0  0  0  0  0  0  0
    3.2006    2.1542    0.0000 C   0  0  0  0  0  0  0  0  0  0  0  0
    2.9422    0.6767    0.0000 C   0  0  0  0  0  0  0  0  0  0  0  0
    1.7918    1.6392    0.0000 C   0  0  0  0  0  0  0  0  0  0  0  0
    1.5334    0.1617    0.0000 C   0  0  0  0  0  0  0  0  0  0  0  0
    0.3830    1.1242    0.0000 C   0  0  0  0  0  0  0  0  0  0  0  0
   -1.0259    0.6093    0.0000 C   0  0  0  0  0  0  0  0  0  0  0  0
   -1.2843   -0.8683    0.0000 C   0  0  0  0  0  0  0  0  0  0  0  0
   -2.5290   -0.0313    0.0000 C   0  0  0  0  0  0  0  0  0  0  0  0
  2  1  1  6
  2  3  1  0
  3  4  1  0
  4  5  1  0
  5  6  2  0
  5  7  1  0
  2  8  1  0
  8  9  1  6
  9 10  1  0
 11 10  1  6
 11 12  1  0
 12 13  1  1
 13 14  1  1
 13 15  1  0
 16 15  1  1
 16 17  1  0
 17 18  1  0
 18 19  1  1
 18 20  1  0
 20 21  1  0
 21 22  1  0
 22 23  1  6
 22 24  1  0
 24 25  1  6
 25 26  1  0
 26 27  1  0
 27 28  1  6
 27  8  1  0
 27 11  1  0
 24 12  1  0
 22 16  1  0
M  END
>  <zinc_id>  (1) 
ZINC000003914808

>  <smiles>  (1) 
C[C@H](CCC(=O)O)[C@H]1CC[C@H]2[C@H]3[C@H](CC[C@@]21C)[C@@]1(C)CC[C@@H](O)C[C@H]1C[C@H]3O

$$$$
