
     RDKit          3D

 23 24  0  0  0  0  0  0  0  0999 V2000
    2.5943    0.6453   -2.8602 C   0  0  0  0  0  0  0  0  0  0  0  0
    1.8966    0.2181   -1.6705 N   0  0  0  0  0  0  0  0  0  0  0  0
    2.5004   -0.2421   -0.5348 C   0  0  0  0  0  0  0  0  0  0  0  0
    3.9897   -0.3541   -0.3921 C   0  0  0  0  0  0  0  0  0  0  0  0
    4.4675    0.9362    0.2800 C   0  0  0  0  0  0  0  0  0  0  0  0
    3.8773    0.9114    1.6885 C   0  0  0  0  0  0  0  0  0  0  0  0
    4.4736   -0.1829    2.4481 C   0  0  0  0  0  0  0  0  0  0  0  0
    5.4420    0.1396    3.2253 O   0  0  0  0  0  0  0  0  0  0  0  0
    4.0887   -1.4869    2.3860 O   0  0  0  0  0  0  0  0  0  0  0  0
    1.5922   -0.5430    0.3721 N   0  0  0  0  0  0  0  0  0  0  0  0
    0.3428   -0.2918   -0.1313 C   0  0  0  0  0  0  0  0  0  0  0  0
   -0.9129   -0.4426    0.4135 C   0  0  0  0  0  0  0  0  0  0  0  0
   -2.0384   -0.0990   -0.3707 C   0  0  0  0  0  0  0  0  0  0  0  0
   -3.3297   -0.2961    0.2588 N   0  0  0  0  0  0  0  0  0  0  0  0
   -4.1658    0.6692    0.8428 C   0  0  0  0  0  0  0  0  0  0  0  0
   -3.9174    2.0603    0.4538 C   0  0  0  0  0  0  0  0  0  0  0  0
   -4.2627    2.3128   -1.2905 Cl  0  0  0  0  0  0  0  0  0  0  0  0
   -3.7040   -1.7300    0.3500 C   0  0  0  0  0  0  0  0  0  0  0  0
   -4.9272   -1.9673   -0.4938 C   0  0  0  0  0  0  0  0  0  0  0  0
   -6.2362   -0.9360    0.2001 Cl  0  0  0  0  0  0  0  0  0  0  0  0
   -1.8054    0.3625   -1.6128 C   0  0  0  0  0  0  0  0  0  0  0  0
   -0.5460    0.5162   -2.1610 C   0  0  0  0  0  0  0  0  0  0  0  0
    0.5808    0.1794   -1.4012 C   0  0  0  0  0  0  0  0  0  0  0  0
  1  2  1  0
  2  3  1  0
  3  4  1  0
  4  5  1  0
  5  6  1  0
  6  7  1  0
  7  8  2  0
  7  9  1  0
  3 10  2  0
 10 11  1  0
 11 12  2  0
 12 13  1  0
 13 14  1  0
 14 15  1  0
 15 16  1  0
 16 17  1  0
 14 18  1  0
 18 19  1  0
 19 20  1  0
 13 21  2  0
 21 22  1  0
 22 23  2  0
 23  2  1  0
 23 11  1  0
M  END
>  <zinc_id>  (1) 
ZINC000004214955

>  <smiles>  (1) 
Cn1c(CCCC(=O)O)nc2cc(N(CCCl)CCCl)ccc21

$$$$
