
     RDKit          3D

 16 17  0  0  0  0  0  0  0  0999 V2000
   -2.2171    1.2798   -1.3496 C   0  0  0  0  0  0  0  0  0  0  0  0
   -1.7947    1.3412    0.2430 C   0  0  2  0  0  0  0  0  0  0  0  0
   -0.3038    0.8943    0.0236 C   0  0  0  0  0  0  0  0  0  0  0  0
    0.4205    0.0395    0.7336 C   0  0  0  0  0  0  0  0  0  0  0  0
    1.6947   -0.1650    0.3504 C   0  0  0  0  0  0  0  0  0  0  0  0
    2.6027   -1.0345    0.9829 C   0  0  0  0  0  0  0  0  0  0  0  0
    3.8550   -1.1468    0.4916 C   0  0  0  0  0  0  0  0  0  0  0  0
    4.3589   -0.4822   -0.5950 C   0  0  0  0  0  0  0  0  0  0  0  0
    3.4445    0.3839   -1.2204 C   0  0  0  0  0  0  0  0  0  0  0  0
    2.1462    0.5160   -0.7321 C   0  0  0  0  0  0  0  0  0  0  0  0
    0.7402    1.4345   -1.1790 S   0  0  0  0  0  0  0  0  0  0  0  0
   -2.3490   -0.0096    0.6926 N   0  0  0  0  0  0  0  0  0  0  0  0
   -1.7972   -0.3972    1.8611 O   0  0  0  0  0  0  0  0  0  0  0  0
   -3.2738   -0.7936    0.0781 C   0  0  0  0  0  0  0  0  0  0  0  0
   -3.6956   -2.0722    0.6202 N   0  0  0  0  0  0  0  0  0  0  0  0
   -3.8312   -0.4750   -1.0009 O   0  0  0  0  0  0  0  0  0  0  0  0
  2  1  1  6
  2  3  1  0
  3  4  2  0
  4  5  1  0
  5  6  2  0
  6  7  1  0
  7  8  2  0
  8  9  1  0
  9 10  2  0
 10 11  1  0
  2 12  1  0
 12 13  1  0
 12 14  1  0
 14 15  1  0
 14 16  2  0
 11  3  1  0
 10  5  1  0
M  END
>  <zinc_id>  (1) 
ZINC000000896731

>  <smiles>  (1) 
C[C@H](c1cc2ccccc2s1)N(O)C(N)=O

$$$$
