
     RDKit          3D

 18 19  0  0  0  0  0  0  0  0999 V2000
    4.3320   -0.4326   -1.0871 C   0  0  0  0  0  0  0  0  0  0  0  0
    3.1036    0.6794   -1.0480 C   0  0  2  0  0  0  0  0  0  0  0  0
    3.2845    1.0174    0.5041 C   0  0  0  0  0  0  0  0  0  0  0  0
    3.1021    2.2212    0.7220 O   0  0  0  0  0  0  0  0  0  0  0  0
    3.5896    0.1114    1.4203 O   0  0  0  0  0  0  0  0  0  0  0  0
    1.9290   -0.3673   -0.8870 C   0  0  0  0  0  0  0  0  0  0  0  0
    1.9478   -1.5594   -1.4979 C   0  0  0  0  0  0  0  0  0  0  0  0
    0.9014   -2.4378   -1.3322 C   0  0  0  0  0  0  0  0  0  0  0  0
   -0.1680   -2.0977   -0.5401 C   0  0  0  0  0  0  0  0  0  0  0  0
   -0.1846   -0.8714    0.0868 C   0  0  0  0  0  0  0  0  0  0  0  0
   -1.2709   -0.5593    0.8748 O   0  0  0  0  0  0  0  0  0  0  0  0
   -2.4057    0.0783    0.3819 C   0  0  0  0  0  0  0  0  0  0  0  0
   -2.5535    0.4569   -0.9307 C   0  0  0  0  0  0  0  0  0  0  0  0
   -3.7191    1.0900   -1.3447 C   0  0  0  0  0  0  0  0  0  0  0  0
   -4.7391    1.3456   -0.4470 C   0  0  0  0  0  0  0  0  0  0  0  0
   -4.6064    0.9714    0.8766 C   0  0  0  0  0  0  0  0  0  0  0  0
   -3.4396    0.3482    1.2469 C   0  0  0  0  0  0  0  0  0  0  0  0
    0.8969    0.0056   -0.0998 C   0  0  0  0  0  0  0  0  0  0  0  0
  2  1  1  1
  2  3  1  0
  3  4  2  0
  3  5  1  0
  2  6  1  0
  6  7  2  0
  7  8  1  0
  8  9  2  0
  9 10  1  0
 10 11  1  0
 11 12  1  0
 12 13  2  0
 13 14  1  0
 14 15  2  0
 15 16  1  0
 16 17  2  0
 10 18  2  0
 18  6  1  0
 17 12  1  0
M  END
>  <zinc_id>  (1) 
ZINC000000000301

>  <smiles>  (1) 
C[C@H](C(=O)O)c1cccc(Oc2ccccc2)c1

$$$$
