
     RDKit          3D

 30 34  0  0  0  0  0  0  0  0999 V2000
   -3.4047    1.5764    1.8141 C   0  0  0  0  0  0  0  0  0  0  0  0
   -3.5609    0.9246    1.2263 C   0  0  0  0  0  0  0  0  0  0  0  0
   -5.0339    1.1718    0.7683 C   0  0  0  0  0  0  0  0  0  0  0  0
   -3.4655   -0.2659    1.8244 O   0  0  0  0  0  0  0  0  0  0  0  0
   -2.8574   -1.2314    0.8545 C   0  0  2  0  0  0  0  0  0  0  0  0
   -1.4173   -1.2441    1.6859 C   0  0  0  0  0  0  0  0  0  0  0  0
   -0.6857   -0.0312    0.9497 C   0  0  1  0  0  0  0  0  0  0  0  0
    0.8549   -0.6975    0.9729 C   0  0  2  0  0  0  0  0  0  0  0  0
    1.2769    0.0316    2.3198 C   0  0  0  0  0  0  0  0  0  0  0  0
    2.6491    0.4486    2.4348 C   0  0  0  0  0  0  0  0  0  0  0  0
    3.4285    0.7397    1.2276 C   0  0  0  0  0  0  0  0  0  0  0  0
    4.3801    1.6026    1.0809 C   0  0  0  0  0  0  0  0  0  0  0  0
    5.0761    1.7804   -0.2137 C   0  0  0  0  0  0  0  0  0  0  0  0
    5.9995    2.6162   -0.3600 O   0  0  0  0  0  0  0  0  0  0  0  0
    4.6315    0.9306   -1.3154 C   0  0  0  0  0  0  0  0  0  0  0  0
    3.6755    0.0630   -1.1688 C   0  0  0  0  0  0  0  0  0  0  0  0
    3.0162   -0.0964    0.0845 C   0  0  1  0  0  0  0  0  0  0  0  0
    3.0951   -1.4931    0.5934 C   0  0  0  0  0  0  0  0  0  0  0  0
    1.4989    0.4585   -0.0089 C   0  0  1  0  0  0  0  0  0  0  0  0
    1.2377   -0.1809   -1.5378 C   0  0  1  0  0  0  0  0  0  0  0  0
    1.2939   -1.6411   -1.2323 O   0  0  0  0  0  0  0  0  0  0  0  0
   -0.3621    0.0415   -1.5377 C   0  0  0  0  0  0  0  0  0  0  0  0
   -1.0301   -0.6416   -0.4949 C   0  0  1  0  0  0  0  0  0  0  0  0
   -1.0751   -2.1141   -0.4718 C   0  0  0  0  0  0  0  0  0  0  0  0
   -2.4300   -0.1540   -0.2805 C   0  0  1  0  0  0  0  0  0  0  0  0
   -3.1767   -0.4763   -1.5088 C   0  0  0  0  0  0  0  0  0  0  0  0
   -3.8883    0.3956   -1.9498 O   0  0  0  0  0  0  0  0  0  0  0  0
   -3.1231   -1.7649   -2.2324 C   0  0  0  0  0  0  0  0  0  0  0  0
   -3.9276   -1.7684   -3.3428 O   0  0  0  0  0  0  0  0  0  0  0  0
   -2.6753    1.0200    0.1817 O   0  0  0  0  0  0  0  0  0  0  0  0
  1  2  1  0
  2  3  1  0
  2  4  1  0
  4  5  1  0
  5  6  1  1
  7  6  1  1
  7  8  1  0
  8  9  1  1
  9 10  1  0
 10 11  1  0
 11 12  2  0
 12 13  1  0
 13 14  2  0
 13 15  1  0
 15 16  2  0
 16 17  1  0
 17 18  1  1
 17 19  1  0
 19 20  1  6
 20 21  1  1
 20 22  1  0
 22 23  1  0
 23 24  1  1
 23 25  1  0
 25 26  1  6
 26 27  2  0
 26 28  1  0
 28 29  1  0
 25 30  1  0
 30  2  1  0
 25  5  1  0
 23  7  1  0
 19  8  1  0
 17 11  1  0
M  END
>  <zinc_id>  (1) 
ZINC000004212851

>  <smiles>  (1) 
CC1(C)O[C@@H]2C[C@H]3[C@@H]4CCC5=CC(=O)C=C[C@]5(C)[C@H]4[C@@H](O)C[C@]3(C)[C@]2(C(=O)CO)O1

$$$$
