
     RDKit          3D

 37 39  0  0  0  0  0  0  0  0999 V2000
    5.5687   -2.0761   -4.1664 C   0  0  0  0  0  0  0  0  0  0  0  0
    4.5690   -2.8396   -3.3383 C   0  0  0  0  0  0  0  0  0  0  0  0
    4.6248   -2.3582   -1.9669 N   0  0  0  0  0  0  0  0  0  0  0  0
    5.7832   -2.6113   -1.1685 C   0  0  0  0  0  0  0  0  0  0  0  0
    6.9365   -1.8074   -1.7335 C   0  0  0  0  0  0  0  0  0  0  0  0
    3.5273   -1.6447   -1.4292 C   0  0  0  0  0  0  0  0  0  0  0  0
    2.5488   -2.4194   -0.8023 C   0  0  0  0  0  0  0  0  0  0  0  0
    1.4864   -1.7405   -0.2931 C   0  0  0  0  0  0  0  0  0  0  0  0
    1.3068   -0.3935   -0.3439 C   0  0  0  0  0  0  0  0  0  0  0  0
    0.1126    0.1882    0.2159 C   0  0  0  0  0  0  0  0  0  0  0  0
    0.0130    1.4616    0.9024 C   0  0  0  0  0  0  0  0  0  0  0  0
   -0.6090    2.5465    0.2656 C   0  0  0  0  0  0  0  0  0  0  0  0
   -0.8145    3.7641    0.8549 C   0  0  0  0  0  0  0  0  0  0  0  0
   -1.5840    5.0815   -0.0209 S   0  0  0  0  0  0  0  0  0  0  0  0
   -1.2678    6.3644    0.7406 O   0  0  0  0  0  0  0  0  0  0  0  0
   -1.0481    5.2085   -1.4067 O   0  0  0  0  0  0  0  0  0  0  0  0
   -3.2534    4.8721   -0.0732 O   0  0  0  0  0  0  0  0  0  0  0  0
   -0.3688    3.9042    2.1641 C   0  0  0  0  0  0  0  0  0  0  0  0
    0.2441    2.8665    2.8176 C   0  0  0  0  0  0  0  0  0  0  0  0
    0.4394    1.6212    2.1805 C   0  0  0  0  0  0  0  0  0  0  0  0
    1.2007    0.3272    3.0431 S   0  0  0  0  0  0  0  0  0  0  0  0
    0.3977   -0.9122    3.1246 O   0  0  0  0  0  0  0  0  0  0  0  0
    2.6278    0.0699    2.5806 O   0  0  0  0  0  0  0  0  0  0  0  0
    1.4514    0.8574    4.6555 O   0  0  0  0  0  0  0  0  0  0  0  0
   -1.0426   -0.4809    0.0374 C   0  0  0  0  0  0  0  0  0  0  0  0
   -2.2993    0.0455    0.5775 C   0  0  0  0  0  0  0  0  0  0  0  0
   -3.4125   -0.6259    0.4039 C   0  0  0  0  0  0  0  0  0  0  0  0
   -3.5077   -1.8961   -0.3048 C   0  0  0  0  0  0  0  0  0  0  0  0
   -4.5512   -2.5888   -0.4865 N   0  0  0  0  0  0  0  0  0  0  0  0
   -5.8435   -2.2397   -0.0198 C   0  0  0  0  0  0  0  0  0  0  0  0
   -5.9427   -0.9819    0.7518 C   0  0  0  0  0  0  0  0  0  0  0  0
   -4.4184   -3.8555   -1.2411 C   0  0  0  0  0  0  0  0  0  0  0  0
   -5.1545   -3.6425   -2.5423 C   0  0  0  0  0  0  0  0  0  0  0  0
   -2.2338   -2.4253   -0.8497 C   0  0  0  0  0  0  0  0  0  0  0  0
   -1.1269   -1.7438   -0.6703 C   0  0  0  0  0  0  0  0  0  0  0  0
    2.2737    0.3831   -0.9646 C   0  0  0  0  0  0  0  0  0  0  0  0
    3.3667   -0.2788   -1.4940 C   0  0  0  0  0  0  0  0  0  0  0  0
  1  2  1  0
  2  3  1  0
  3  4  1  0
  4  5  1  0
  3  6  1  0
  6  7  2  0
  7  8  1  0
  8  9  2  0
  9 10  1  0
 10 11  1  0
 11 12  2  0
 12 13  1  0
 13 14  1  0
 14 15  2  0
 14 16  2  0
 14 17  1  0
 13 18  2  0
 18 19  1  0
 19 20  2  0
 20 21  1  0
 21 22  2  0
 21 23  2  0
 21 24  1  0
 10 25  2  3
 25 26  1  0
 26 27  2  0
 27 28  1  0
 28 29  2  3
 29 30  1  0
 30 31  1  0
 29 32  1  0
 32 33  1  0
 28 34  1  0
 34 35  2  0
  9 36  1  0
 36 37  2  0
 37  6  1  0
 20 11  1  0
 35 25  1  0
M  CHG  1  29   1
M  END
>  <zinc_id>  (1) 
ZINC000003873832

>  <smiles>  (1) 
CCN(CC)c1ccc(C(=C2C=CC(=[N+](CC)CC)C=C2)c2cc(S(=O)(=O)O)ccc2S(=O)(=O)O)cc1

$$$$
