
     RDKit          3D

 24 26  0  0  0  0  0  0  0  0999 V2000
   -2.4093    2.9112   -1.4939 C   0  0  0  0  0  0  0  0  0  0  0  0
   -3.4801    2.5887   -0.7339 N   0  0  0  0  0  0  0  0  0  0  0  0
   -4.4898    3.6171   -0.8904 C   0  0  0  0  0  0  0  0  0  0  0  0
   -3.0943    2.4773    0.6420 C   0  0  0  0  0  0  0  0  0  0  0  0
   -2.2098    1.2914    0.9068 C   0  0  0  0  0  0  0  0  0  0  0  0
   -0.9250    1.3206    0.1274 C   0  0  0  0  0  0  0  0  0  0  0  0
   -0.1368    0.0868    0.4696 C   0  0  2  0  0  0  0  0  0  0  0  0
   -0.8613   -1.1531    0.1429 C   0  0  0  0  0  0  0  0  0  0  0  0
   -2.1138   -1.1357   -0.4363 C   0  0  0  0  0  0  0  0  0  0  0  0
   -2.7893   -2.3104   -0.7475 C   0  0  0  0  0  0  0  0  0  0  0  0
   -2.2174   -3.5224   -0.4813 C   0  0  0  0  0  0  0  0  0  0  0  0
   -2.8621   -4.6650   -0.7720 F   0  0  0  0  0  0  0  0  0  0  0  0
   -0.9689   -3.5608    0.0959 C   0  0  0  0  0  0  0  0  0  0  0  0
   -0.3033   -2.3812    0.4022 C   0  0  0  0  0  0  0  0  0  0  0  0
    0.0460    0.1061    1.8663 O   0  0  0  0  0  0  0  0  0  0  0  0
    1.1542    0.9276    2.0726 C   0  0  0  0  0  0  0  0  0  0  0  0
    2.0350    0.6525    0.9062 C   0  0  0  0  0  0  0  0  0  0  0  0
    3.3883    0.8344    0.7425 C   0  0  0  0  0  0  0  0  0  0  0  0
    3.9951    0.4926   -0.4456 C   0  0  0  0  0  0  0  0  0  0  0  0
    5.3994    0.6876   -0.6016 C   0  0  0  0  0  0  0  0  0  0  0  0
    6.5322    0.8471   -0.7065 N   0  0  0  0  0  0  0  0  0  0  0  0
    3.2243   -0.0319   -1.4654 C   0  0  0  0  0  0  0  0  0  0  0  0
    1.8544   -0.2056   -1.2731 C   0  0  0  0  0  0  0  0  0  0  0  0
    1.2322    0.1250   -0.1061 C   0  0  0  0  0  0  0  0  0  0  0  0
  1  2  1  0
  2  3  1  0
  2  4  1  0
  4  5  1  0
  5  6  1  0
  7  6  1  6
  7  8  1  0
  8  9  2  0
  9 10  1  0
 10 11  2  0
 11 12  1  0
 11 13  1  0
 13 14  2  0
  7 15  1  0
 15 16  1  0
 16 17  1  0
 17 18  2  0
 18 19  1  0
 19 20  1  0
 20 21  3  0
 19 22  2  0
 22 23  1  0
 23 24  2  0
 24  7  1  0
 14  8  1  0
 24 17  1  0
M  END
>  <zinc_id>  (1) 
ZINC000003794601

>  <smiles>  (1) 
CN(C)CCC[C@]1(c2ccc(F)cc2)OCc2cc(C#N)ccc21

$$$$
