
     RDKit          3D

 24 23  0  0  0  0  0  0  0  0999 V2000
   -7.6187   -1.0944    0.1850 C   0  0  0  0  0  0  0  0  0  0  0  0
   -6.8150   -0.1835    1.0889 C   0  0  0  0  0  0  0  0  0  0  0  0
   -5.5497   -0.8944    1.4650 C   0  0  0  0  0  0  0  0  0  0  0  0
   -4.3545   -0.3883    1.1611 C   0  0  0  0  0  0  0  0  0  0  0  0
   -4.3489    0.9142    0.4319 C   0  0  0  0  0  0  0  0  0  0  0  0
   -3.6563    1.9682    1.1661 C   0  0  0  0  0  0  0  0  0  0  0  0
   -2.6463    2.6227    0.6734 C   0  0  0  0  0  0  0  0  0  0  0  0
   -2.0916    2.3861   -0.6557 C   0  0  0  0  0  0  0  0  0  0  0  0
   -2.7652    1.3060   -1.3976 C   0  0  0  0  0  0  0  0  0  0  0  0
   -2.0287    0.2665   -1.8308 C   0  0  0  0  0  0  0  0  0  0  0  0
   -0.5751    0.2895   -1.5233 C   0  0  0  0  0  0  0  0  0  0  0  0
    0.2307    0.2686   -2.7526 C   0  0  0  0  0  0  0  0  0  0  0  0
    1.0735   -0.6930   -2.9831 C   0  0  0  0  0  0  0  0  0  0  0  0
    1.2953   -1.8139   -2.0689 C   0  0  0  0  0  0  0  0  0  0  0  0
    0.5257   -1.8166   -0.8355 C   0  0  0  0  0  0  0  0  0  0  0  0
    1.0545   -1.8666    0.3548 C   0  0  0  0  0  0  0  0  0  0  0  0
    2.4821   -1.9276    0.6287 C   0  0  0  0  0  0  0  0  0  0  0  0
    3.2723   -1.8866   -0.6125 C   0  0  0  0  0  0  0  0  0  0  0  0
    4.1813   -0.9248   -0.7445 C   0  0  0  0  0  0  0  0  0  0  0  0
    4.3371    0.0430    0.3703 C   0  0  0  0  0  0  0  0  0  0  0  0
    5.7594   -0.0521    0.8732 C   0  0  0  0  0  0  0  0  0  0  0  0
    5.9974    0.8898    1.9951 C   0  0  0  0  0  0  0  0  0  0  0  0
    5.0393    1.6114    2.3692 O   0  0  0  0  0  0  0  0  0  0  0  0
    7.2014    1.0139    2.6420 O   0  0  0  0  0  0  0  0  0  0  0  0
  1  2  1  0
  2  3  1  0
  3  4  2  0
  4  5  1  0
  5  6  1  0
  6  7  2  0
  7  8  1  0
  8  9  1  0
  9 10  2  0
 10 11  1  0
 11 12  1  0
 12 13  2  0
 13 14  1  0
 14 15  1  0
 15 16  2  0
 16 17  1  0
 17 18  1  0
 18 19  2  0
 19 20  1  0
 20 21  1  0
 21 22  1  0
 22 23  2  0
 22 24  1  0
M  END
>  <zinc_id>  (1) 
ZINC000004474564

>  <smiles>  (1) 
CC/C=C\C/C=C\C/C=C\C/C=C\C/C=C\C/C=C\CCC(=O)O

$$$$
