
     RDKit          3D

 18 18  0  0  0  0  0  0  0  0999 V2000
    6.5603    0.9738    1.5524 C   0  0  0  0  0  0  0  0  0  0  0  0
    5.2001    0.8418    0.8905 C   0  0  0  0  0  0  0  0  0  0  0  0
    4.1598    0.6140    1.9680 C   0  0  0  0  0  0  0  0  0  0  0  0
    2.8164    0.4885    1.2531 C   0  0  0  0  0  0  0  0  0  0  0  0
    2.9368   -0.6417    0.3558 N   0  0  0  0  0  0  0  0  0  0  0  0
    1.8075   -0.9764   -0.4382 C   0  0  0  0  0  0  0  0  0  0  0  0
    1.6800   -2.1966   -1.0889 O   0  0  0  0  0  0  0  0  0  0  0  0
    0.8658   -0.1257   -0.5642 N   0  0  0  0  0  0  0  0  0  0  0  0
   -0.5578   -0.4335   -1.5110 S   0  0  0  0  0  0  0  0  0  0  0  0
   -0.6951   -1.8998   -1.8100 O   0  0  0  0  0  0  0  0  0  0  0  0
   -0.5296    0.2996   -2.8061 O   0  0  0  0  0  0  0  0  0  0  0  0
   -1.9988    0.0281   -0.6096 C   0  0  0  0  0  0  0  0  0  0  0  0
   -2.4930    1.3281   -0.7238 C   0  0  0  0  0  0  0  0  0  0  0  0
   -3.6332    1.6439    0.0078 C   0  0  0  0  0  0  0  0  0  0  0  0
   -4.2673    0.7371    0.8159 C   0  0  0  0  0  0  0  0  0  0  0  0
   -5.4837    1.0523    1.6044 C   0  0  0  0  0  0  0  0  0  0  0  0
   -3.7523   -0.5441    0.9077 C   0  0  0  0  0  0  0  0  0  0  0  0
   -2.6159   -0.9057    0.1960 C   0  0  0  0  0  0  0  0  0  0  0  0
  1  2  1  0
  2  3  1  0
  3  4  1  0
  4  5  1  0
  5  6  1  0
  6  7  1  0
  6  8  2  0
  8  9  1  0
  9 10  2  0
  9 11  2  0
  9 12  1  0
 12 13  2  0
 13 14  1  0
 14 15  2  0
 15 16  1  0
 15 17  1  0
 17 18  2  0
 18 12  1  0
M  END
>  <zinc_id>  (1) 
ZINC000001530703

>  <smiles>  (1) 
CCCCN/C(O)=N/S(=O)(=O)c1ccc(C)cc1

$$$$
