
     RDKit          3D

 23 25  0  0  0  0  0  0  0  0999 V2000
    4.2850   -0.9548   -0.4174 C   0  0  0  0  0  0  0  0  0  0  0  0
    4.2006   -0.9539   -0.1371 N   0  0  0  0  0  0  0  0  0  0  0  0
    4.7467   -2.1946    0.4169 C   0  0  0  0  0  0  0  0  0  0  0  0
    4.6307    0.1817    0.6524 C   0  0  0  0  0  0  0  0  0  0  0  0
    3.4944    1.1543    0.6951 C   0  0  0  0  0  0  0  0  0  0  0  0
    2.6067    0.6004   -0.5623 C   0  0  2  0  0  0  0  0  0  0  0  0
    1.2708    0.8294    0.1497 O   0  0  0  0  0  0  0  0  0  0  0  0
    0.1841    0.4565   -0.6416 C   0  0  0  0  0  0  0  0  0  0  0  0
    0.3197   -0.0076   -1.7948 O   0  0  0  0  0  0  0  0  0  0  0  0
   -1.2203    0.6011   -0.1288 C   0  0  2  0  0  0  0  0  0  0  0  0
   -1.1791    1.1320    1.1681 O   0  0  0  0  0  0  0  0  0  0  0  0
   -1.7851   -0.7635   -0.0665 C   0  0  0  0  0  0  0  0  0  0  0  0
   -1.0771   -1.8194    0.4546 C   0  0  0  0  0  0  0  0  0  0  0  0
   -1.6205   -3.1067    0.5090 C   0  0  0  0  0  0  0  0  0  0  0  0
   -2.8849   -3.2955    0.0278 C   0  0  0  0  0  0  0  0  0  0  0  0
   -3.6283   -2.2474   -0.5062 C   0  0  0  0  0  0  0  0  0  0  0  0
   -3.0581   -0.9719   -0.5470 C   0  0  0  0  0  0  0  0  0  0  0  0
   -1.9487    1.4876   -1.0840 C   0  0  0  0  0  0  0  0  0  0  0  0
   -3.3767    1.7344   -0.7128 C   0  0  0  0  0  0  0  0  0  0  0  0
   -3.3571    2.8110    0.3613 C   0  0  0  0  0  0  0  0  0  0  0  0
   -1.9908    3.4130    0.2600 C   0  0  0  0  0  0  0  0  0  0  0  0
   -1.3441    2.8723   -0.9916 C   0  0  0  0  0  0  0  0  0  0  0  0
    2.7323   -0.9584   -0.0089 C   0  0  0  0  0  0  0  0  0  0  0  0
  1  2  1  0
  2  3  1  0
  2  4  1  0
  4  5  1  0
  5  6  1  0
  6  7  1  1
  7  8  1  0
  8  9  2  0
  8 10  1  0
 10 11  1  1
 10 12  1  0
 12 13  2  0
 13 14  1  0
 14 15  2  0
 15 16  1  0
 16 17  2  0
 10 18  1  0
 18 19  1  0
 19 20  1  0
 20 21  1  0
 21 22  1  0
  6 23  1  0
 23  2  1  0
 17 12  1  0
 22 18  1  0
M  CHG  1   2   1
M  END
>  <zinc_id>  (1) 
ZINC000000000346

>  <smiles>  (1) 
C[N+]1(C)CC[C@H](OC(=O)[C@](O)(c2ccccc2)C2CCCC2)C1

$$$$
