
     RDKit          3D

 25 30  0  0  0  0  0  0  0  0999 V2000
   -1.7498   -3.2094   -0.2735 O   0  0  0  0  0  0  0  0  0  0  0  0
   -1.6790   -2.4857   -0.4468 C   0  0  0  0  0  0  0  0  0  0  0  0
   -1.5395   -1.7511   -1.7119 C   0  0  0  0  0  0  0  0  0  0  0  0
   -0.2288   -1.0959   -1.8628 C   0  0  0  0  0  0  0  0  0  0  0  0
    0.3718   -0.9585   -0.4566 C   0  0  1  0  0  0  0  0  0  0  0  0
    1.1349   -2.1140   -0.2916 O   0  0  0  0  0  0  0  0  0  0  0  0
    1.4566    0.2088   -0.7378 C   0  0  1  0  0  0  0  0  0  0  0  0
    0.8851    1.5034    0.0135 C   0  0  0  0  0  0  0  0  0  0  0  0
   -0.5213    1.7006   -0.1086 C   0  0  0  0  0  0  0  0  0  0  0  0
   -1.2247    2.8433   -0.4748 C   0  0  0  0  0  0  0  0  0  0  0  0
   -2.6270    2.7764   -0.5037 C   0  0  0  0  0  0  0  0  0  0  0  0
   -3.2936    1.5956   -0.1743 C   0  0  0  0  0  0  0  0  0  0  0  0
   -4.6743    1.5433   -0.2082 O   0  0  0  0  0  0  0  0  0  0  0  0
   -2.6041    0.4366    0.1960 C   0  0  0  0  0  0  0  0  0  0  0  0
   -1.2734    0.5973    0.1945 C   0  0  0  0  0  0  0  0  0  0  0  0
   -0.5274   -0.5703    0.5617 C   0  0  2  0  0  0  0  0  0  0  0  0
    0.2803   -0.3999    1.8486 C   0  0  0  0  0  0  0  0  0  0  0  0
    1.6647   -0.0886    1.6676 C   0  0  0  0  0  0  0  0  0  0  0  0
    2.3728   -0.2097    0.4954 N   0  0  0  0  0  0  0  0  0  0  0  0
    3.3381    0.8690    0.4250 C   0  0  0  0  0  0  0  0  0  0  0  0
    4.2356    0.8214   -0.7653 C   0  0  0  0  0  0  0  0  0  0  0  0
    5.0708   -0.4428   -0.8659 C   0  0  0  0  0  0  0  0  0  0  0  0
    5.7359    0.8459   -0.3160 C   0  0  0  0  0  0  0  0  0  0  0  0
   -1.6873   -1.5979    0.9274 C   0  0  1  0  0  0  0  0  0  0  0  0
   -2.9166   -0.8177    0.5580 O   0  0  0  0  0  0  0  0  0  0  0  0
  1  2  2  0
  2  3  1  0
  3  4  1  0
  4  5  1  0
  5  6  1  1
  5  7  1  0
  7  8  1  1
  8  9  1  0
  9 10  2  0
 10 11  1  0
 11 12  2  0
 12 13  1  0
 12 14  1  0
 14 15  2  0
 15 16  1  0
 16 17  1  1
 17 18  1  0
 18 19  1  0
 19 20  1  0
 20 21  1  0
 21 22  1  0
 22 23  1  0
 16 24  1  0
 24 25  1  6
 24  2  1  0
 16  5  1  0
 23 21  1  0
 19  7  1  0
 15  9  1  0
 25 14  1  0
M  END
>  <zinc_id>  (1) 
ZINC000000001773

>  <smiles>  (1) 
O=C1CC[C@@]2(O)[C@H]3Cc4ccc(O)c5c4[C@@]2(CCN3CC2CC2)[C@H]1O5

$$$$
