
     RDKit          3D

 14 14  0  0  0  0  0  0  0  0999 V2000
   -4.6181   -0.6478   -1.4793 N   0  0  0  0  0  0  0  0  0  0  0  0
   -3.3176   -0.3755   -0.9714 C   0  0  0  0  0  0  0  0  0  0  0  0
   -3.0618   -0.4461    0.3822 C   0  0  0  0  0  0  0  0  0  0  0  0
   -1.8123   -0.1866    0.8916 C   0  0  0  0  0  0  0  0  0  0  0  0
   -0.7902    0.1514    0.0395 C   0  0  0  0  0  0  0  0  0  0  0  0
    0.5489    0.4291    0.5933 C   0  0  0  0  0  0  0  0  0  0  0  0
    0.7018    0.3465    1.8356 O   0  0  0  0  0  0  0  0  0  0  0  0
    1.5704    0.7710   -0.3242 N   0  0  0  0  0  0  0  0  0  0  0  0
    2.9042    1.0506    0.1373 C   0  0  0  0  0  0  0  0  0  0  0  0
    3.4796   -0.1073    0.7944 C   0  0  0  0  0  0  0  0  0  0  0  0
    2.8804   -1.1994    0.8981 O   0  0  0  0  0  0  0  0  0  0  0  0
    4.7682    0.0088    1.3370 O   0  0  0  0  0  0  0  0  0  0  0  0
   -1.0028    0.2333   -1.3193 C   0  0  0  0  0  0  0  0  0  0  0  0
   -2.2507   -0.0281   -1.8061 C   0  0  0  0  0  0  0  0  0  0  0  0
  1  2  1  0
  2  3  2  0
  3  4  1  0
  4  5  2  0
  5  6  1  0
  6  7  2  0
  6  8  1  0
  8  9  1  0
  9 10  1  0
 10 11  2  0
 10 12  1  0
  5 13  1  0
 13 14  2  0
 14  2  1  0
M  END
>  <zinc_id>  (1) 
ZINC000000119344

>  <smiles>  (1) 
Nc1ccc(C(=O)NCC(=O)O)cc1

$$$$
