
     RDKit          2D

 17 18  0  0  0  0  0  0  0  0999 V2000
    4.1362   -2.1189    0.0000 C   0  0  0  0  0  0  0  0  0  0  0  0
    3.1792   -0.9638    0.0000 C   0  0  0  0  0  0  0  0  0  0  0  0
    1.7004   -1.2151    0.0000 C   0  0  0  0  0  0  0  0  0  0  0  0
    0.7434   -0.0601    0.0000 N   0  0  0  0  0  0  0  0  0  0  0  0
   -0.7354   -0.3113    0.0000 C   0  0  0  0  0  0  0  0  0  0  0  0
   -1.4013   -1.6554    0.0000 C   0  0  0  0  0  0  0  0  0  0  0  0
   -2.8854   -1.4374    0.0000 C   0  0  0  0  0  0  0  0  0  0  0  0
   -3.9341   -2.5099    0.0000 O   0  0  0  0  0  0  0  0  0  0  0  0
   -3.1367    0.0414    0.0000 C   0  0  0  0  0  0  0  0  0  0  0  0
   -4.4807    0.7074    0.0000 C   0  0  0  0  0  0  0  0  0  0  0  0
   -4.5760    2.2043    0.0000 O   0  0  0  0  0  0  0  0  0  0  0  0
   -1.8079    0.7374    0.0000 O   0  0  0  0  0  0  0  0  0  0  0  0
    1.2652    1.3463    0.0000 C   0  0  0  0  0  0  0  0  0  0  0  0
    0.3082    2.5013    0.0000 O   0  0  0  0  0  0  0  0  0  0  0  0
    2.7440    1.5975    0.0000 N   0  0  0  0  0  0  0  0  0  0  0  0
    3.7010    0.4425    0.0000 C   0  0  0  0  0  0  0  0  0  0  0  0
    5.1798    0.6937    0.0000 O   0  0  0  0  0  0  0  0  0  0  0  0
  1  2  1  0
  2  3  2  0
  3  4  1  0
  5  4  1  6
  5  6  1  0
  6  7  1  0
  7  8  1  1
  7  9  1  0
  9 10  1  6
 10 11  1  0
  9 12  1  0
  4 13  1  0
 13 14  2  0
 13 15  1  0
 15 16  1  0
 16 17  2  0
 16  2  1  0
 12  5  1  0
M  END
>  <zinc_id>  (1) 
ZINC000000002159

>  <smiles>  (1) 
Cc1cn([C@@H]2C[C@@H](O)[C@H](CO)O2)c(=O)[nH]c1=O

$$$$
