
     RDKit          3D

 39 44  0  0  0  0  0  0  0  0999 V2000
    5.4116    5.1880   -0.9996 C   0  0  0  0  0  0  0  0  0  0  0  0
    5.2169    4.3474    0.0839 C   0  0  0  0  0  0  0  0  0  0  0  0
    6.4333    3.4644    0.2815 C   0  0  0  0  0  0  0  0  0  0  0  0
    3.9943    3.5252    0.0320 C   0  0  0  0  0  0  0  0  0  0  0  0
    3.2360    3.6283   -0.9436 O   0  0  0  0  0  0  0  0  0  0  0  0
    3.6750    2.6449    1.0424 O   0  0  0  0  0  0  0  0  0  0  0  0
    2.5694    1.8200    1.1137 C   0  0  0  0  0  0  0  0  0  0  0  0
    2.4402    0.8081    0.0437 C   0  0  0  0  0  0  0  0  0  0  0  0
    3.3299    0.7834   -0.7762 O   0  0  0  0  0  0  0  0  0  0  0  0
    1.3295   -0.1238   -0.0601 C   0  0  1  0  0  0  0  0  0  0  0  0
    1.3763   -1.0421   -1.0469 O   0  0  0  0  0  0  0  0  0  0  0  0
    2.7107   -1.5605   -0.5345 C   0  0  2  0  0  0  0  0  0  0  0  0
    2.7422   -2.8674   -1.5374 C   0  0  0  0  0  0  0  0  0  0  0  0
    4.0247   -3.5152   -1.1384 C   0  0  0  0  0  0  0  0  0  0  0  0
    3.8327   -4.3950    0.0722 C   0  0  0  0  0  0  0  0  0  0  0  0
    2.9258   -5.5526   -0.1606 C   0  0  0  0  0  0  0  0  0  0  0  0
    1.7733   -5.1464   -0.9928 C   0  0  0  0  0  0  0  0  0  0  0  0
    1.6136   -3.7416   -1.3169 C   0  0  0  0  0  0  0  0  0  0  0  0
    2.0450   -2.2827    0.5909 O   0  0  0  0  0  0  0  0  0  0  0  0
    1.3258   -1.1290    1.2110 C   0  0  2  0  0  0  0  0  0  0  0  0
   -0.1339   -1.8041    0.9457 C   0  0  0  0  0  0  0  0  0  0  0  0
   -0.7564   -0.8125   -0.1427 C   0  0  1  0  0  0  0  0  0  0  0  0
   -2.1339   -0.4769    0.7999 C   0  0  2  0  0  0  0  0  0  0  0  0
   -2.8443   -1.7670    0.2058 C   0  0  0  0  0  0  0  0  0  0  0  0
   -4.1989   -1.7821    0.8672 C   0  0  0  0  0  0  0  0  0  0  0  0
   -4.8655   -0.5659    0.2483 C   0  0  0  0  0  0  0  0  0  0  0  0
   -5.9905   -0.6937   -0.3132 C   0  0  0  0  0  0  0  0  0  0  0  0
   -6.7647    0.3663   -0.9677 C   0  0  0  0  0  0  0  0  0  0  0  0
   -7.8812    0.1522   -1.5008 O   0  0  0  0  0  0  0  0  0  0  0  0
   -6.1173    1.6737   -0.9373 C   0  0  0  0  0  0  0  0  0  0  0  0
   -4.9529    1.7624   -0.3410 C   0  0  0  0  0  0  0  0  0  0  0  0
   -4.1838    0.7347    0.3216 C   0  0  1  0  0  0  0  0  0  0  0  0
   -4.1644    1.1522    1.7553 C   0  0  0  0  0  0  0  0  0  0  0  0
   -2.7708    0.5566   -0.3524 C   0  0  1  0  0  0  0  0  0  0  0  0
   -2.0240    1.9813    0.0537 C   0  0  1  0  0  0  0  0  0  0  0  0
   -1.9247    1.8876    1.5324 O   0  0  0  0  0  0  0  0  0  0  0  0
   -0.5276    1.5625   -0.4100 C   0  0  0  0  0  0  0  0  0  0  0  0
    0.0384    0.4935    0.3128 C   0  0  2  0  0  0  0  0  0  0  0  0
    0.1902    0.7257    1.7216 C   0  0  0  0  0  0  0  0  0  0  0  0
  1  2  1  0
  2  3  1  0
  2  4  1  0
  4  5  2  0
  4  6  1  0
  6  7  1  0
  7  8  1  0
  8  9  2  0
 10  8  1  1
 10 11  1  0
 11 12  1  0
 12 13  1  6
 13 14  1  0
 14 15  1  0
 15 16  1  0
 16 17  1  0
 17 18  1  0
 12 19  1  0
 19 20  1  0
 20 21  1  6
 22 21  1  1
 22 23  1  0
 23 24  1  6
 24 25  1  0
 25 26  1  0
 26 27  2  0
 27 28  1  0
 28 29  2  0
 28 30  1  0
 30 31  2  0
 31 32  1  0
 32 33  1  1
 32 34  1  0
 34 35  1  1
 35 36  1  1
 35 37  1  0
 37 38  1  0
 38 39  1  1
 20 10  1  0
 38 22  1  0
 38 10  1  0
 18 13  1  0
 34 23  1  0
 32 26  1  0
M  END
>  <zinc_id>  (1) 
ZINC000003915154

>  <smiles>  (1) 
CC(C)C(=O)OCC(=O)[C@@]12O[C@H](C3CCCCC3)O[C@@H]1C[C@H]1[C@@H]3CCC4=CC(=O)C=C[C@]4(C)[C@H]3[C@@H](O)C[C@@]12C

$$$$
