
     RDKit          3D

 15 15  0  0  0  0  0  0  0  0999 V2000
    3.2248    2.5362   -0.9228 C   0  0  0  0  0  0  0  0  0  0  0  0
    2.9594    1.0668   -0.8141 C   0  0  0  0  0  0  0  0  0  0  0  0
    1.8358    0.5759   -0.3923 C   0  0  0  0  0  0  0  0  0  0  0  0
    1.5141   -0.8511   -0.2594 C   0  0  0  0  0  0  0  0  0  0  0  0
    2.2788   -1.7803   -0.5354 O   0  0  0  0  0  0  0  0  0  0  0  0
    0.2050   -1.1561    0.2370 N   0  0  0  0  0  0  0  0  0  0  0  0
   -0.1275   -2.5171    0.5124 C   0  0  0  0  0  0  0  0  0  0  0  0
   -0.6927   -3.3165   -0.6180 C   0  0  0  0  0  0  0  0  0  0  0  0
   -0.7065   -0.0712    0.5067 C   0  0  0  0  0  0  0  0  0  0  0  0
   -0.4736    0.7278    1.6207 C   0  0  0  0  0  0  0  0  0  0  0  0
   -1.2596    1.8059    1.9430 C   0  0  0  0  0  0  0  0  0  0  0  0
   -2.3364    2.0792    1.0775 C   0  0  0  0  0  0  0  0  0  0  0  0
   -2.5734    1.2975   -0.0175 C   0  0  0  0  0  0  0  0  0  0  0  0
   -1.7572    0.2039   -0.3197 C   0  0  0  0  0  0  0  0  0  0  0  0
   -2.0909   -0.6009   -1.5495 C   0  0  0  0  0  0  0  0  0  0  0  0
  1  2  1  0
  2  3  2  0
  3  4  1  0
  4  5  2  0
  4  6  1  0
  6  7  1  0
  7  8  1  0
  6  9  1  0
  9 10  2  0
 10 11  1  0
 11 12  2  0
 12 13  1  0
 13 14  2  0
 14 15  1  0
 14  9  1  0
M  END
>  <zinc_id>  (1) 
ZINC000000056427

>  <smiles>  (1) 
C/C=C/C(=O)N(CC)c1ccccc1C

$$$$
