
     RDKit          3D

  6  5  0  0  0  0  0  0  0  0999 V2000
    1.5156    0.3505   -1.1548 C   0  0  0  0  0  0  0  0  0  0  0  0
    0.6857    0.1439    0.0532 C   0  0  0  0  0  0  0  0  0  0  0  0
    1.2154    0.2274    1.1793 O   0  0  0  0  0  0  0  0  0  0  0  0
   -0.7096   -0.1494   -0.0365 C   0  0  0  0  0  0  0  0  0  0  0  0
   -1.2643   -0.2388   -1.1399 O   0  0  0  0  0  0  0  0  0  0  0  0
   -1.4428   -0.3336    1.0987 O   0  0  0  0  0  0  0  0  0  0  0  0
  1  2  1  0
  2  3  2  0
  2  4  1  0
  4  5  2  0
  4  6  1  0
M  END
>  <zinc_id>  (1) 
ZINC000001532517

>  <smiles>  (1) 
CC(=O)C(=O)O

$$$$
