
     RDKit          3D

 29 32  0  0  0  0  0  0  0  0999 V2000
    7.3144    3.7471    0.4117 C   0  0  0  0  0  0  0  0  0  0  0  0
    6.5299    2.5239    0.3828 C   0  0  0  0  0  0  0  0  0  0  0  0
    5.5154    2.1929    1.1744 N   0  0  0  0  0  0  0  0  0  0  0  0
    4.9305    1.0850    1.0232 N   0  0  0  0  0  0  0  0  0  0  0  0
    5.3073    0.2361    0.0853 C   0  0  0  0  0  0  0  0  0  0  0  0
    4.7208   -1.3724   -0.3906 S   0  0  0  0  0  0  0  0  0  0  0  0
    3.3369   -1.9373    0.5371 C   0  0  0  0  0  0  0  0  0  0  0  0
    2.0984   -1.2094    0.1634 C   0  0  0  0  0  0  0  0  0  0  0  0
    1.0988   -1.9786   -0.3255 C   0  0  0  0  0  0  0  0  0  0  0  0
    1.2967   -3.4299   -0.4481 C   0  0  0  0  0  0  0  0  0  0  0  0
    2.3877   -3.9074   -0.1012 O   0  0  0  0  0  0  0  0  0  0  0  0
    0.3171   -4.2626   -0.9302 O   0  0  0  0  0  0  0  0  0  0  0  0
   -0.1514   -1.4789   -0.7443 N   0  0  0  0  0  0  0  0  0  0  0  0
   -1.5456   -1.6913   -0.7448 C   0  0  0  0  0  0  0  0  0  0  0  0
   -2.4572   -2.4122   -0.4043 O   0  0  0  0  0  0  0  0  0  0  0  0
   -1.7553   -0.3269   -1.5608 C   0  0  1  0  0  0  0  0  0  0  0  0
   -2.1924    0.5709   -0.3330 N   0  0  0  0  0  0  0  0  0  0  0  0
   -3.5815    0.8115   -0.2705 C   0  0  0  0  0  0  0  0  0  0  0  0
   -4.3762    0.3436   -1.1239 O   0  0  0  0  0  0  0  0  0  0  0  0
   -4.1308    1.6336    0.8267 C   0  0  0  0  0  0  0  0  0  0  0  0
   -5.5695    1.7655    0.7296 N   0  0  0  0  0  0  0  0  0  0  0  0
   -6.3558    2.6522    0.1318 C   0  0  0  0  0  0  0  0  0  0  0  0
   -7.6393    2.3197    0.3318 N   0  0  0  0  0  0  0  0  0  0  0  0
   -7.6301    1.2048    1.0675 N   0  0  0  0  0  0  0  0  0  0  0  0
   -6.3714    0.8827    1.2997 N   0  0  0  0  0  0  0  0  0  0  0  0
   -0.1176   -0.1917   -1.5127 C   0  0  1  0  0  0  0  0  0  0  0  0
    0.3756    0.8462   -0.0278 S   0  0  0  0  0  0  0  0  0  0  0  0
    2.0289    0.2401    0.3562 C   0  0  0  0  0  0  0  0  0  0  0  0
    6.6156    1.1426   -0.6180 S   0  0  0  0  0  0  0  0  0  0  0  0
  1  2  1  0
  2  3  2  0
  3  4  1  0
  4  5  2  0
  5  6  1  0
  6  7  1  0
  7  8  1  0
  8  9  2  0
  9 10  1  0
 10 11  2  0
 10 12  1  0
  9 13  1  0
 13 14  1  0
 14 15  2  0
 14 16  1  0
 16 17  1  1
 17 18  1  0
 18 19  2  0
 18 20  1  0
 20 21  1  0
 21 22  1  0
 22 23  2  0
 23 24  1  0
 24 25  2  0
 16 26  1  0
 26 27  1  1
 27 28  1  0
  5 29  1  0
 29  2  1  0
 28  8  1  0
 26 13  1  0
 25 21  1  0
M  END
>  <zinc_id>  (1) 
ZINC000003830405

>  <smiles>  (1) 
Cc1nnc(SCC2=C(C(=O)O)N3C(=O)[C@@H](NC(=O)Cn4cnnn4)[C@H]3SC2)s1

$$$$
