
     RDKit          3D

 32 36  0  0  0  0  0  0  0  0999 V2000
   -6.9800    1.8606   -0.2910 C   0  0  0  0  0  0  0  0  0  0  0  0
   -5.9060    1.3524   -0.4735 C   0  0  0  0  0  0  0  0  0  0  0  0
   -5.8602    0.2107   -1.0659 O   0  0  0  0  0  0  0  0  0  0  0  0
   -4.6477    1.8306   -0.1269 O   0  0  0  0  0  0  0  0  0  0  0  0
   -3.4371    1.2063   -0.3552 C   0  0  0  0  0  0  0  0  0  0  0  0
   -3.2283   -0.1081    0.2886 C   0  0  0  0  0  0  0  0  0  0  0  0
   -4.0741   -0.5992    1.0038 O   0  0  0  0  0  0  0  0  0  0  0  0
   -1.9629   -0.7994    0.0334 C   0  0  1  0  0  0  0  0  0  0  0  0
   -1.8115   -2.0539    0.6569 N   0  0  0  0  0  0  0  0  0  0  0  0
   -2.1329   -2.9671   -0.1754 C   0  0  0  0  0  0  0  0  0  0  0  0
   -2.0927   -4.4388    0.1495 C   0  0  0  0  0  0  0  0  0  0  0  0
   -2.5185   -2.5264   -1.3893 O   0  0  0  0  0  0  0  0  0  0  0  0
   -1.8887   -1.1268   -1.5578 C   0  0  2  0  0  0  0  0  0  0  0  0
   -0.3672   -1.6707   -1.5738 C   0  0  0  0  0  0  0  0  0  0  0  0
    0.2157   -1.1604   -0.1840 C   0  0  1  0  0  0  0  0  0  0  0  0
    1.3654   -0.1282   -0.8816 C   0  0  2  0  0  0  0  0  0  0  0  0
    2.3133   -1.3559   -1.2505 C   0  0  0  0  0  0  0  0  0  0  0  0
    3.7215   -0.9226   -1.4174 C   0  0  0  0  0  0  0  0  0  0  0  0
    4.2011    0.0051   -0.3846 C   0  0  0  0  0  0  0  0  0  0  0  0
    5.3773   -0.0826    0.1032 C   0  0  0  0  0  0  0  0  0  0  0  0
    5.8558    0.8474    1.1407 C   0  0  0  0  0  0  0  0  0  0  0  0
    7.0037    0.7812    1.6332 O   0  0  0  0  0  0  0  0  0  0  0  0
    4.9139    1.8687    1.5766 C   0  0  0  0  0  0  0  0  0  0  0  0
    3.6959    1.9638    1.0733 C   0  0  0  0  0  0  0  0  0  0  0  0
    3.2536    1.0445    0.0576 C   0  0  1  0  0  0  0  0  0  0  0  0
    2.9331    1.7560   -1.2193 C   0  0  0  0  0  0  0  0  0  0  0  0
    2.0740    0.1175    0.5806 C   0  0  1  0  0  0  0  0  0  0  0  0
    1.1121    1.3091    1.2517 C   0  0  1  0  0  0  0  0  0  0  0  0
    0.8654    2.1864    0.0828 O   0  0  0  0  0  0  0  0  0  0  0  0
   -0.3167    0.5724    1.2740 C   0  0  0  0  0  0  0  0  0  0  0  0
   -0.7862    0.1030    0.0180 C   0  0  2  0  0  0  0  0  0  0  0  0
   -0.8912    0.9243   -1.1747 C   0  0  0  0  0  0  0  0  0  0  0  0
  1  2  1  0
  2  3  2  0
  2  4  1  0
  4  5  1  0
  5  6  1  0
  6  7  2  0
  8  6  1  6
  8  9  1  0
  9 10  2  0
 10 11  1  0
 10 12  1  0
 12 13  1  0
 13 14  1  1
 15 14  1  6
 15 16  1  0
 16 17  1  6
 17 18  1  0
 18 19  1  0
 19 20  2  0
 20 21  1  0
 21 22  2  0
 21 23  1  0
 23 24  2  0
 24 25  1  0
 25 26  1  6
 25 27  1  0
 27 28  1  1
 28 29  1  6
 28 30  1  0
 30 31  1  0
 31 32  1  6
 13  8  1  0
 31 15  1  0
 31  8  1  0
 27 16  1  0
 25 19  1  0
M  END
>  <zinc_id>  (1) 
ZINC000004212809

>  <smiles>  (1) 
CC(=O)OCC(=O)[C@@]12N=C(C)O[C@@H]1C[C@H]1[C@@H]3CCC4=CC(=O)C=C[C@]4(C)[C@H]3[C@@H](O)C[C@@]12C

$$$$
