
     RDKit          3D

 39 39  0  0  0  0  0  0  0  0999 V2000
   -8.5733    0.6670    0.4889 C   0  0  0  0  0  0  0  0  0  0  0  0
   -8.3050    0.6042    0.6216 O   0  0  0  0  0  0  0  0  0  0  0  0
   -7.0122    1.0613    0.4736 C   0  0  0  0  0  0  0  0  0  0  0  0
   -6.1018    0.3502    1.4405 C   0  0  0  0  0  0  0  0  0  0  0  0
   -6.1600   -1.1186    1.1448 C   0  0  0  0  0  0  0  0  0  0  0  0
   -5.7588   -1.4529   -0.1422 O   0  0  0  0  0  0  0  0  0  0  0  0
   -4.5008   -1.1931   -0.6673 C   0  0  0  0  0  0  0  0  0  0  0  0
   -3.6016   -0.5666    0.1437 C   0  0  0  0  0  0  0  0  0  0  0  0
   -2.2802   -0.2324   -0.2431 C   0  0  0  0  0  0  0  0  0  0  0  0
   -1.4106    0.4943    0.6871 C   0  0  0  0  0  0  0  0  0  0  0  0
   -0.6861   -0.0081    1.7256 C   0  0  1  0  0  0  0  0  0  0  0  0
    0.2800   -0.7926    2.2446 C   0  0  0  0  0  0  0  0  0  0  0  0
    0.4411   -2.3161    2.1242 C   0  0  2  0  0  0  0  0  0  0  0  0
    1.6839   -2.3918    3.1789 N   0  0  0  0  0  0  0  0  0  0  0  0
    1.5638   -2.5207    0.8565 C   0  0  1  0  0  0  0  0  0  0  0  0
    0.6048   -2.4367   -0.2392 O   0  0  0  0  0  0  0  0  0  0  0  0
    2.1728   -1.0366    0.7974 C   0  0  0  0  0  0  0  0  0  0  0  0
    3.2608   -1.3192   -0.3679 C   0  0  2  0  0  0  0  0  0  0  0  0
    3.8878    0.1828   -0.3745 C   0  0  0  0  0  0  0  0  0  0  0  0
    3.4685    1.0347    0.3714 O   0  0  0  0  0  0  0  0  0  0  0  0
    4.9201    0.3603   -1.3023 N   0  0  0  0  0  0  0  0  0  0  0  0
    5.6698    1.4781   -1.5705 C   0  0  0  0  0  0  0  0  0  0  0  0
    6.5552    2.1298   -0.5980 C   0  0  0  0  0  0  0  0  0  0  0  0
    7.6316    1.1515   -0.1089 C   0  0  0  0  0  0  0  0  0  0  0  0
    5.8829    2.7060    0.6048 C   0  0  0  0  0  0  0  0  0  0  0  0
    7.3280    3.2510   -1.2562 C   0  0  0  0  0  0  0  0  0  0  0  0
    6.5711    4.2991   -1.8269 N   0  0  0  0  0  0  0  0  0  0  0  0
    8.5475    3.2595   -1.2976 O   0  0  0  0  0  0  0  0  0  0  0  0
    2.2278   -1.0355   -1.6000 C   0  0  0  0  0  0  0  0  0  0  0  0
    1.7245    0.3330   -1.5502 C   0  0  0  0  0  0  0  0  0  0  0  0
    3.2085   -1.0921   -2.7686 C   0  0  0  0  0  0  0  0  0  0  0  0
   -1.1139    0.9731    2.9979 C   0  0  0  0  0  0  0  0  0  0  0  0
   -0.7362    2.3526    2.6323 C   0  0  0  0  0  0  0  0  0  0  0  0
   -2.6045    0.9264    3.0580 C   0  0  0  0  0  0  0  0  0  0  0  0
   -1.9883   -0.6042   -1.5281 C   0  0  0  0  0  0  0  0  0  0  0  0
   -2.8859   -1.2338   -2.3493 C   0  0  0  0  0  0  0  0  0  0  0  0
   -4.1677   -1.5497   -1.9516 C   0  0  0  0  0  0  0  0  0  0  0  0
   -5.0818   -2.1871   -2.7776 O   0  0  0  0  0  0  0  0  0  0  0  0
   -4.6616   -2.5271   -4.1019 C   0  0  0  0  0  0  0  0  0  0  0  0
  1  2  1  0
  2  3  1  0
  3  4  1  0
  4  5  1  0
  5  6  1  0
  6  7  1  0
  7  8  2  0
  8  9  1  0
  9 10  1  0
 11 10  1  6
 11 12  1  0
 12 13  1  0
 13 14  1  1
 13 15  1  0
 15 16  1  6
 15 17  1  0
 18 17  1  1
 18 19  1  0
 19 20  2  0
 19 21  1  0
 21 22  1  0
 22 23  1  0
 23 24  1  0
 23 25  1  0
 23 26  1  0
 26 27  1  0
 26 28  2  0
 18 29  1  0
 29 30  1  0
 29 31  1  0
 11 32  1  0
 32 33  1  0
 32 34  1  0
  9 35  2  0
 35 36  1  0
 36 37  2  0
 37 38  1  0
 38 39  1  0
 37  7  1  0
M  END
>  <zinc_id>  (1) 
ZINC000004393164

>  <smiles>  (1) 
COCCCOc1cc(C[C@@H](C[C@H](N)[C@@H](O)C[C@H](C(=O)NCC(C)(C)C(N)=O)C(C)C)C(C)C)ccc1OC

$$$$
