
     RDKit          3D

 25 27  0  0  0  0  0  0  0  0999 V2000
    1.8214    2.9277    2.0842 C   0  0  0  0  0  0  0  0  0  0  0  0
    1.7633    1.6355    1.3928 C   0  0  0  0  0  0  0  0  0  0  0  0
    2.7706    0.8660    1.0242 C   0  0  0  0  0  0  0  0  0  0  0  0
    4.1911    1.2337    1.2791 C   0  0  0  0  0  0  0  0  0  0  0  0
    4.9826    1.3557    0.0389 C   0  0  0  0  0  0  0  0  0  0  0  0
    5.4027    0.3221   -0.5215 O   0  0  0  0  0  0  0  0  0  0  0  0
    5.2645    2.5889   -0.5088 O   0  0  0  0  0  0  0  0  0  0  0  0
    2.2648   -0.3250    0.3680 C   0  0  0  0  0  0  0  0  0  0  0  0
    2.8600   -1.4218   -0.2051 C   0  0  0  0  0  0  0  0  0  0  0  0
    2.1295   -2.4415   -0.7925 C   0  0  0  0  0  0  0  0  0  0  0  0
    2.7393   -3.5106   -1.3498 F   0  0  0  0  0  0  0  0  0  0  0  0
    0.7402   -2.3683   -0.8116 C   0  0  0  0  0  0  0  0  0  0  0  0
    0.1383   -1.2738   -0.2395 C   0  0  0  0  0  0  0  0  0  0  0  0
    0.8726   -0.2646    0.3429 C   0  0  0  0  0  0  0  0  0  0  0  0
    0.5037    0.9787    0.9913 C   0  0  0  0  0  0  0  0  0  0  0  0
   -0.7065    1.4444    1.1436 C   0  0  0  0  0  0  0  0  0  0  0  0
   -1.9316    0.8093    0.7629 C   0  0  0  0  0  0  0  0  0  0  0  0
   -2.8538    1.4437   -0.0915 C   0  0  0  0  0  0  0  0  0  0  0  0
   -4.0634    0.8712   -0.3976 C   0  0  0  0  0  0  0  0  0  0  0  0
   -4.4541   -0.3292    0.0921 C   0  0  0  0  0  0  0  0  0  0  0  0
   -6.0247   -1.1123   -0.2821 S   0  0  0  0  0  0  0  0  0  0  0  0
   -5.6424   -2.0883   -1.7830 C   0  0  0  0  0  0  0  0  0  0  0  0
   -6.8538    0.0527   -0.8680 O   0  0  0  0  0  0  0  0  0  0  0  0
   -3.5621   -0.9882    0.9448 C   0  0  0  0  0  0  0  0  0  0  0  0
   -2.3521   -0.4057    1.2454 C   0  0  0  0  0  0  0  0  0  0  0  0
  1  2  1  0
  2  3  2  0
  3  4  1  0
  4  5  1  0
  5  6  2  0
  5  7  1  0
  3  8  1  0
  8  9  2  0
  9 10  1  0
 10 11  1  0
 10 12  2  0
 12 13  1  0
 13 14  2  0
 14 15  1  0
 15 16  2  0
 16 17  1  0
 17 18  2  0
 18 19  1  0
 19 20  2  0
 20 21  1  0
 21 22  1  6
 21 23  2  0
 20 24  1  0
 24 25  2  0
 15  2  1  0
 25 17  1  0
 14  8  1  0
M  END
>  <zinc_id>  (1) 
ZINC000004475353

>  <smiles>  (1) 
CC1=C(CC(=O)O)c2cc(F)ccc2/C1=C\c1ccc([S@](C)=O)cc1

$$$$
