
     RDKit          3D

 10  9  0  0  0  0  0  0  0  0999 V2000
   -3.1645   -1.6754   -0.0936 O   0  0  0  0  0  0  0  0  0  0  0  0
   -2.3141   -0.5911   -0.3782 C   0  0  0  0  0  0  0  0  0  0  0  0
   -0.9038   -1.1509   -0.2655 C   0  0  0  0  0  0  0  0  0  0  0  0
   -0.0043   -0.0207   -0.5535 N   0  0  0  0  0  0  0  0  0  0  0  0
    1.3511   -0.5392   -0.4324 C   0  0  0  0  0  0  0  0  0  0  0  0
    1.6797   -0.8751    0.9868 C   0  0  0  0  0  0  0  0  0  0  0  0
    2.9771   -1.3607    1.0404 O   0  0  0  0  0  0  0  0  0  0  0  0
   -0.2744    0.9631    0.4670 C   0  0  0  0  0  0  0  0  0  0  0  0
    0.5332    2.2202    0.3522 C   0  0  0  0  0  0  0  0  0  0  0  0
    0.1200    3.0299    1.4398 O   0  0  0  0  0  0  0  0  0  0  0  0
  1  2  1  0
  2  3  1  0
  3  4  1  0
  4  5  1  0
  5  6  1  0
  6  7  1  0
  4  8  1  0
  8  9  1  0
  9 10  1  0
M  END
>  <zinc_id>  (1) 
ZINC000000896409

>  <smiles>  (1) 
OCCN(CCO)CCO

$$$$
