
     RDKit          3D

 15 15  0  0  0  0  0  0  0  0999 V2000
    2.9491    1.6558   -0.1865 C   0  0  0  0  0  0  0  0  0  0  0  0
    2.5441    1.3695    0.2413 C   0  0  0  0  0  0  0  0  0  0  0  0
    2.1710    0.1371    0.6258 N   0  0  0  0  0  0  0  0  0  0  0  0
    3.0814   -0.6940    1.2939 C   0  0  0  0  0  0  0  0  0  0  0  0
    4.2432   -1.1978    0.4886 C   0  0  0  0  0  0  0  0  0  0  0  0
    0.9135   -0.5388    0.2211 C   0  0  2  0  0  0  0  0  0  0  0  0
    1.1502   -0.5490   -1.3902 C   0  0  0  0  0  0  0  0  0  0  0  0
   -0.1174    0.6328    0.3261 C   0  0  0  0  0  0  0  0  0  0  0  0
    0.0776    1.7627    0.6530 O   0  0  0  0  0  0  0  0  0  0  0  0
   -1.5110    0.2601   -0.0338 C   0  0  0  0  0  0  0  0  0  0  0  0
   -1.8565   -1.0058   -0.4159 C   0  0  0  0  0  0  0  0  0  0  0  0
   -3.1325   -1.4174   -0.7622 C   0  0  0  0  0  0  0  0  0  0  0  0
   -4.1317   -0.4587   -0.7147 C   0  0  0  0  0  0  0  0  0  0  0  0
   -3.8423    0.8005   -0.3471 C   0  0  0  0  0  0  0  0  0  0  0  0
   -2.5387    1.1907    0.0005 C   0  0  0  0  0  0  0  0  0  0  0  0
  1  2  1  0
  2  3  1  0
  3  4  1  0
  4  5  1  0
  3  6  1  0
  6  7  1  6
  6  8  1  0
  8  9  2  0
  8 10  1  0
 10 11  2  0
 11 12  1  0
 12 13  2  0
 13 14  1  0
 14 15  2  0
 15 10  1  0
M  END
>  <zinc_id>  (1) 
ZINC000002847375

>  <smiles>  (1) 
CCN(CC)[C@H](C)C(=O)c1ccccc1

$$$$
