
     RDKit          3D

 14 14  0  0  0  0  0  0  0  0999 V2000
   -4.1566    1.4859    0.7223 C   0  0  0  0  0  0  0  0  0  0  0  0
   -3.2169    0.3862    0.3633 C   0  0  0  0  0  0  0  0  0  0  0  0
   -3.6768   -0.9175    0.4044 O   0  0  0  0  0  0  0  0  0  0  0  0
   -1.9954    0.5851    0.0157 N   0  0  0  0  0  0  0  0  0  0  0  0
   -1.0166   -0.7592   -0.3727 S   0  0  0  0  0  0  0  0  0  0  0  0
   -1.3586   -1.3714   -1.6969 O   0  0  0  0  0  0  0  0  0  0  0  0
   -1.0940   -1.8451    0.6799 O   0  0  0  0  0  0  0  0  0  0  0  0
    0.6486   -0.2064   -0.4104 C   0  0  0  0  0  0  0  0  0  0  0  0
    1.3886   -0.2559    0.7501 C   0  0  0  0  0  0  0  0  0  0  0  0
    2.6947    0.1721    0.7424 C   0  0  0  0  0  0  0  0  0  0  0  0
    3.3079    0.6592   -0.4025 C   0  0  0  0  0  0  0  0  0  0  0  0
    4.6629    1.0846   -0.3357 N   0  0  0  0  0  0  0  0  0  0  0  0
    2.5661    0.7066   -1.5570 C   0  0  0  0  0  0  0  0  0  0  0  0
    1.2461    0.2758   -1.5567 C   0  0  0  0  0  0  0  0  0  0  0  0
  1  2  1  0
  2  3  1  0
  2  4  2  0
  4  5  1  0
  5  6  2  0
  5  7  2  0
  5  8  1  0
  8  9  2  0
  9 10  1  0
 10 11  2  0
 11 12  1  0
 11 13  1  0
 13 14  2  0
 14  8  1  0
M  END
>  <zinc_id>  (1) 
ZINC000005179119

>  <smiles>  (1) 
C/C(O)=N/S(=O)(=O)c1ccc(N)cc1

$$$$
