
     RDKit          3D

 15 16  0  0  0  0  0  0  0  0999 V2000
   -2.6869    0.4100    2.5720 C   0  0  0  0  0  0  0  0  0  0  0  0
   -2.2437    0.2140    1.2900 C   0  0  0  0  0  0  0  0  0  0  0  0
   -2.9739   -0.5168    0.3936 C   0  0  0  0  0  0  0  0  0  0  0  0
   -2.5661   -0.7413   -0.9113 C   0  0  0  0  0  0  0  0  0  0  0  0
   -1.3647   -0.1962   -1.3116 C   0  0  0  0  0  0  0  0  0  0  0  0
   -0.6322    0.5156   -0.4728 C   0  0  0  0  0  0  0  0  0  0  0  0
    0.7678    1.1639   -0.8493 C   0  0  2  0  0  0  0  0  0  0  0  0
    0.6703    0.9283   -2.4712 C   0  0  0  0  0  0  0  0  0  0  0  0
    1.7314   -0.0355   -0.5668 C   0  0  0  0  0  0  0  0  0  0  0  0
    2.3658   -0.0235    0.6428 C   0  0  0  0  0  0  0  0  0  0  0  0
    3.1532   -1.1416    0.7004 N   0  0  0  0  0  0  0  0  0  0  0  0
    2.9687   -1.7768   -0.4567 C   0  0  0  0  0  0  0  0  0  0  0  0
    2.1062   -1.0834   -1.1981 N   0  0  0  0  0  0  0  0  0  0  0  0
   -1.0326    0.7422    0.8246 C   0  0  0  0  0  0  0  0  0  0  0  0
   -0.2635    1.5411    1.8142 C   0  0  0  0  0  0  0  0  0  0  0  0
  1  2  1  0
  2  3  2  0
  3  4  1  0
  4  5  2  0
  5  6  1  0
  6  7  1  0
  7  8  1  6
  7  9  1  0
  9 10  2  0
 10 11  1  0
 11 12  2  0
 12 13  1  0
  6 14  2  0
 14 15  1  0
 14  2  1  0
 13  9  1  0
M  END
>  <zinc_id>  (1) 
ZINC000004632106

>  <smiles>  (1) 
Cc1cccc([C@H](C)c2cnc[nH]2)c1C

$$$$
