
     RDKit          3D

 28 31  0  0  0  0  0  0  0  0999 V2000
   -1.0070   -2.8898   -1.3831 C   0  0  0  0  0  0  0  0  0  0  0  0
   -1.9604   -1.9681   -1.2741 C   0  0  0  0  0  0  0  0  0  0  0  0
   -3.0754   -1.9075   -1.9980 O   0  0  0  0  0  0  0  0  0  0  0  0
   -3.7929   -0.9103   -1.6605 N   0  0  0  0  0  0  0  0  0  0  0  0
   -3.1808   -0.2108   -0.6507 C   0  0  0  0  0  0  0  0  0  0  0  0
   -3.7433    0.9778   -0.0327 C   0  0  0  0  0  0  0  0  0  0  0  0
   -5.0620    0.9834    0.4501 C   0  0  0  0  0  0  0  0  0  0  0  0
   -5.5921    2.1320    0.9916 C   0  0  0  0  0  0  0  0  0  0  0  0
   -4.8100    3.2728    1.0510 C   0  0  0  0  0  0  0  0  0  0  0  0
   -3.5049    3.3233    0.5893 C   0  0  0  0  0  0  0  0  0  0  0  0
   -3.0330    2.1352    0.0577 C   0  0  0  0  0  0  0  0  0  0  0  0
   -2.0051   -0.8789   -0.3926 C   0  0  0  0  0  0  0  0  0  0  0  0
   -0.9923   -0.5338    0.5902 C   0  0  0  0  0  0  0  0  0  0  0  0
   -1.2404    0.3239    1.4773 O   0  0  0  0  0  0  0  0  0  0  0  0
    0.3166   -1.0856    0.6645 N   0  0  0  0  0  0  0  0  0  0  0  0
    1.2256   -0.5414    1.8257 C   0  0  2  0  0  0  0  0  0  0  0  0
    1.5473    0.9026    1.2583 C   0  0  0  0  0  0  0  0  0  0  0  0
    1.0531    1.9977    1.3215 O   0  0  0  0  0  0  0  0  0  0  0  0
    2.6893    0.3377    0.6326 N   0  0  0  0  0  0  0  0  0  0  0  0
    2.7233   -0.9670    1.3068 C   0  0  2  0  0  0  0  0  0  0  0  0
    2.5599   -1.8989   -0.3072 S   0  0  0  0  0  0  0  0  0  0  0  0
    3.4846   -0.8477   -1.3163 C   0  0  0  0  0  0  0  0  0  0  0  0
    4.6765   -1.2893   -2.0210 C   0  0  0  0  0  0  0  0  0  0  0  0
    2.5684   -0.1254   -2.3237 C   0  0  0  0  0  0  0  0  0  0  0  0
    3.8556    0.4413   -0.3613 C   0  0  2  0  0  0  0  0  0  0  0  0
    5.1073   -0.1135    0.4441 C   0  0  0  0  0  0  0  0  0  0  0  0
    4.9510   -0.1584    1.6768 O   0  0  0  0  0  0  0  0  0  0  0  0
    6.2412   -0.5012   -0.1803 O   0  0  0  0  0  0  0  0  0  0  0  0
  1  2  1  0
  2  3  1  0
  3  4  1  0
  4  5  2  0
  5  6  1  0
  6  7  2  0
  7  8  1  0
  8  9  2  0
  9 10  1  0
 10 11  2  0
  5 12  1  0
 12 13  1  0
 13 14  2  0
 13 15  1  0
 16 15  1  6
 16 17  1  0
 17 18  2  0
 17 19  1  0
 19 20  1  0
 20 21  1  6
 21 22  1  0
 22 23  1  0
 22 24  1  0
 22 25  1  0
 25 26  1  1
 26 27  2  0
 26 28  1  0
 12  2  2  0
 20 16  1  0
 11  6  1  0
 25 19  1  0
M  END
>  <zinc_id>  (1) 
ZINC000003875439

>  <smiles>  (1) 
Cc1onc(-c2ccccc2)c1C(=O)N[C@@H]1C(=O)N2[C@@H](C(=O)O)C(C)(C)S[C@H]12

$$$$
