
     RDKit          3D

 32 34  0  0  0  0  0  0  0  0999 V2000
   -3.0620   -1.3163   -0.0522 O   0  0  0  0  0  0  0  0  0  0  0  0
   -1.8066   -1.3993    0.0423 C   0  0  0  0  0  0  0  0  0  0  0  0
   -1.1397   -2.5523    0.6398 C   0  0  0  0  0  0  0  0  0  0  0  0
   -1.9050   -3.5862    1.1185 C   0  0  0  0  0  0  0  0  0  0  0  0
   -3.3060   -3.5100    1.0194 O   0  0  0  0  0  0  0  0  0  0  0  0
   -1.2903   -4.6796    1.6852 C   0  0  0  0  0  0  0  0  0  0  0  0
    0.0825   -4.7358    1.7714 C   0  0  0  0  0  0  0  0  0  0  0  0
    0.8814   -3.7289    1.3073 C   0  0  0  0  0  0  0  0  0  0  0  0
    2.2639   -3.7147    1.3575 O   0  0  0  0  0  0  0  0  0  0  0  0
    0.2291   -2.6251    0.7336 C   0  0  0  0  0  0  0  0  0  0  0  0
    1.0575   -1.5355    0.2303 C   0  0  0  0  0  0  0  0  0  0  0  0
    2.3092   -1.5862    0.3087 O   0  0  0  0  0  0  0  0  0  0  0  0
    0.4127   -0.3753   -0.3700 C   0  0  0  0  0  0  0  0  0  0  0  0
    1.2026    0.6626   -0.8486 C   0  0  0  0  0  0  0  0  0  0  0  0
    2.6096    0.5079   -0.7403 N   0  0  0  0  0  0  0  0  0  0  0  0
    3.4386    1.5981   -1.2200 C   0  0  0  0  0  0  0  0  0  0  0  0
    4.9028    1.2432   -1.1537 C   0  0  0  0  0  0  0  0  0  0  0  0
    5.3764    0.9286    0.1689 N   0  0  0  0  0  0  0  0  0  0  0  0
    6.7824    0.5946    0.0498 C   0  0  0  0  0  0  0  0  0  0  0  0
    7.5315    1.8744   -0.3175 C   0  0  0  0  0  0  0  0  0  0  0  0
    7.3225    2.8084    0.7023 O   0  0  0  0  0  0  0  0  0  0  0  0
    0.5989    1.7462   -1.4063 C   0  0  0  0  0  0  0  0  0  0  0  0
   -0.7751    1.8033   -1.4918 C   0  0  0  0  0  0  0  0  0  0  0  0
   -1.5857    0.7906   -1.0281 C   0  0  0  0  0  0  0  0  0  0  0  0
   -2.9912    0.8243   -1.1091 N   0  0  0  0  0  0  0  0  0  0  0  0
   -3.7562    1.8854   -1.6883 C   0  0  0  0  0  0  0  0  0  0  0  0
   -3.5180    3.1724   -0.9625 C   0  0  0  0  0  0  0  0  0  0  0  0
   -3.9166    3.0095    0.4369 N   0  0  0  0  0  0  0  0  0  0  0  0
   -5.3803    2.8603    0.4022 C   0  0  0  0  0  0  0  0  0  0  0  0
   -5.9749    4.1681   -0.0235 C   0  0  0  0  0  0  0  0  0  0  0  0
   -5.6176    5.1779    0.8978 O   0  0  0  0  0  0  0  0  0  0  0  0
   -0.9766   -0.3109   -0.4602 C   0  0  0  0  0  0  0  0  0  0  0  0
  1  2  2  0
  2  3  1  0
  3  4  2  0
  4  5  1  0
  4  6  1  0
  6  7  2  0
  7  8  1  0
  8  9  1  0
  8 10  2  0
 10 11  1  0
 11 12  2  0
 11 13  1  0
 13 14  2  0
 14 15  1  0
 15 16  1  0
 16 17  1  0
 17 18  1  0
 18 19  1  0
 19 20  1  0
 20 21  1  0
 14 22  1  0
 22 23  2  0
 23 24  1  0
 24 25  1  0
 25 26  1  0
 26 27  1  0
 27 28  1  0
 28 29  1  0
 29 30  1  0
 30 31  1  0
 24 32  2  0
 32  2  1  0
 10  3  1  0
 32 13  1  0
M  END
>  <zinc_id>  (1) 
ZINC000003794794

>  <smiles>  (1) 
O=C1c2c(O)ccc(O)c2C(=O)c2c(NCCNCCO)ccc(NCCNCCO)c21

$$$$
