
     RDKit          3D

 22 23  0  0  0  0  0  0  0  0999 V2000
   -3.0668    2.5308   -0.9952 C   0  0  0  0  0  0  0  0  0  0  0  0
   -2.0850    2.3294    0.1701 C   0  0  0  0  0  0  0  0  0  0  0  0
   -2.9245    1.9951    1.3905 C   0  0  0  0  0  0  0  0  0  0  0  0
   -1.3314    3.5148    0.3285 C   0  0  0  0  0  0  0  0  0  0  0  0
   -0.7477    4.5090    0.5041 N   0  0  0  0  0  0  0  0  0  0  0  0
   -1.2339    1.1541   -0.1971 C   0  0  0  0  0  0  0  0  0  0  0  0
    0.0226    1.3075   -0.7363 C   0  0  0  0  0  0  0  0  0  0  0  0
    0.7758    0.1681   -1.0434 C   0  0  0  0  0  0  0  0  0  0  0  0
    2.1385    0.2604   -1.6138 C   0  0  0  0  0  0  0  0  0  0  0  0
    3.1819    0.0795   -0.6438 N   0  0  0  0  0  0  0  0  0  0  0  0
    3.7646   -1.1244   -0.2920 C   0  0  0  0  0  0  0  0  0  0  0  0
    4.7285   -0.9403    0.6354 N   0  0  0  0  0  0  0  0  0  0  0  0
    4.7518    0.3834    0.8748 C   0  0  0  0  0  0  0  0  0  0  0  0
    3.8094    0.9871    0.0924 N   0  0  0  0  0  0  0  0  0  0  0  0
    0.2377   -1.1019   -0.7992 C   0  0  0  0  0  0  0  0  0  0  0  0
   -1.0146   -1.2560   -0.2666 C   0  0  0  0  0  0  0  0  0  0  0  0
   -1.6764   -2.5404   -0.0160 C   0  0  0  0  0  0  0  0  0  0  0  0
   -3.1494   -2.4144   -0.4598 C   0  0  0  0  0  0  0  0  0  0  0  0
   -1.1290   -3.6897   -0.8421 C   0  0  0  0  0  0  0  0  0  0  0  0
   -1.6673   -2.8855    1.3900 C   0  0  0  0  0  0  0  0  0  0  0  0
   -1.6359   -3.1521    2.4849 N   0  0  0  0  0  0  0  0  0  0  0  0
   -1.7490   -0.1146    0.0345 C   0  0  0  0  0  0  0  0  0  0  0  0
  1  2  1  0
  2  3  1  0
  2  4  1  0
  4  5  3  0
  2  6  1  0
  6  7  2  0
  7  8  1  0
  8  9  1  0
  9 10  1  0
 10 11  1  0
 11 12  2  0
 12 13  1  0
 13 14  2  0
  8 15  2  0
 15 16  1  0
 16 17  1  0
 17 18  1  0
 17 19  1  0
 17 20  1  0
 20 21  3  0
 16 22  2  0
 22  6  1  0
 14 10  1  0
M  END
>  <zinc_id>  (1) 
ZINC000000000941

>  <smiles>  (1) 
CC(C)(C#N)c1cc(Cn2cncn2)cc(C(C)(C)C#N)c1

$$$$
