
     RDKit          3D

 16 18  0  0  0  0  0  0  0  0999 V2000
    0.2014    3.1161   -0.9345 C   0  0  0  0  0  0  0  0  0  0  0  0
    0.2778    2.3051    0.2253 O   0  0  0  0  0  0  0  0  0  0  0  0
    0.4632    0.9352    0.1431 C   0  0  0  0  0  0  0  0  0  0  0  0
    1.6928    0.3127    0.1278 C   0  0  0  0  0  0  0  0  0  0  0  0
    2.8955    0.7921    0.1809 O   0  0  0  0  0  0  0  0  0  0  0  0
    3.8050   -0.1564    0.1390 C   0  0  0  0  0  0  0  0  0  0  0  0
    3.1575   -1.3939    0.0491 C   0  0  0  0  0  0  0  0  0  0  0  0
    1.8195   -1.0635    0.0440 C   0  0  0  0  0  0  0  0  0  0  0  0
    0.6619   -1.7922   -0.0239 C   0  0  0  0  0  0  0  0  0  0  0  0
   -0.6083   -1.2183   -0.0124 C   0  0  0  0  0  0  0  0  0  0  0  0
   -1.7476   -1.9815   -0.0822 C   0  0  0  0  0  0  0  0  0  0  0  0
   -2.9646   -1.3404   -0.0655 C   0  0  0  0  0  0  0  0  0  0  0  0
   -2.9868    0.0337    0.0202 C   0  0  0  0  0  0  0  0  0  0  0  0
   -4.1151    0.5890    0.0332 O   0  0  0  0  0  0  0  0  0  0  0  0
   -1.8716    0.7212    0.0847 O   0  0  0  0  0  0  0  0  0  0  0  0
   -0.6807    0.1411    0.0713 C   0  0  0  0  0  0  0  0  0  0  0  0
  1  2  1  0
  2  3  1  0
  3  4  2  0
  4  5  1  0
  5  6  1  0
  6  7  2  0
  7  8  1  0
  8  9  2  0
  9 10  1  0
 10 11  1  0
 11 12  2  0
 12 13  1  0
 13 14  2  0
 13 15  1  0
 15 16  1  0
 16  3  1  0
  8  4  1  0
 16 10  2  0
M  END
>  <zinc_id>  (1) 
ZINC000002548959

>  <smiles>  (1) 
COc1c2occc2cc2ccc(=O)oc12

$$$$
