
     RDKit          3D

 30 34  0  0  0  0  0  0  0  0999 V2000
    2.6236    0.8800   -3.6231 C   0  0  0  0  0  0  0  0  0  0  0  0
    2.7317    0.8731   -2.8843 O   0  0  0  0  0  0  0  0  0  0  0  0
    2.4304    0.5497   -1.5749 C   0  0  0  0  0  0  0  0  0  0  0  0
    1.2849   -0.2043   -1.2699 C   0  0  0  0  0  0  0  0  0  0  0  0
    0.9213   -0.5576   -0.0527 C   0  0  0  0  0  0  0  0  0  0  0  0
   -0.3240   -1.3884    0.3897 C   0  0  1  0  0  0  0  0  0  0  0  0
   -1.3662   -0.2360    0.5711 C   0  0  0  0  0  0  0  0  0  0  0  0
   -0.9956    0.6125    1.5802 C   0  0  0  0  0  0  0  0  0  0  0  0
   -1.7573    1.7241    1.9421 C   0  0  0  0  0  0  0  0  0  0  0  0
   -2.9085    1.9506    1.2494 C   0  0  0  0  0  0  0  0  0  0  0  0
   -3.2679    1.0784    0.2288 C   0  0  0  0  0  0  0  0  0  0  0  0
   -2.4684    0.0110   -0.0665 C   0  0  0  0  0  0  0  0  0  0  0  0
   -3.0257   -0.8948   -1.2832 C   0  0  2  0  0  0  0  0  0  0  0  0
   -4.3662   -1.1777   -0.5850 O   0  0  0  0  0  0  0  0  0  0  0  0
   -2.3126   -2.3097   -0.6109 C   0  0  1  0  0  0  0  0  0  0  0  0
   -2.4931   -3.2257   -1.9351 C   0  0  0  0  0  0  0  0  0  0  0  0
   -1.3636   -4.0721   -1.6086 O   0  0  0  0  0  0  0  0  0  0  0  0
   -0.3116   -3.2874   -1.1915 C   0  0  0  0  0  0  0  0  0  0  0  0
    0.7867   -3.7320   -0.8913 O   0  0  0  0  0  0  0  0  0  0  0  0
   -0.8140   -1.8057   -1.1921 C   0  0  2  0  0  0  0  0  0  0  0  0
   -3.4928    3.1053    1.7846 O   0  0  0  0  0  0  0  0  0  0  0  0
   -2.6374    3.6844    2.7493 C   0  0  0  0  0  0  0  0  0  0  0  0
   -1.6130    2.7181    2.9011 O   0  0  0  0  0  0  0  0  0  0  0  0
    1.7123   -0.1648    0.9930 C   0  0  0  0  0  0  0  0  0  0  0  0
    2.8727    0.5879    0.7932 C   0  0  0  0  0  0  0  0  0  0  0  0
    3.6884    0.9983    1.8195 O   0  0  0  0  0  0  0  0  0  0  0  0
    3.3872    0.6717    3.1600 C   0  0  0  0  0  0  0  0  0  0  0  0
    3.1913    0.9204   -0.4986 C   0  0  0  0  0  0  0  0  0  0  0  0
    4.3330    1.6716   -0.7995 O   0  0  0  0  0  0  0  0  0  0  0  0
    5.5543    1.0189   -1.0549 C   0  0  0  0  0  0  0  0  0  0  0  0
  1  2  1  0
  2  3  1  0
  3  4  2  0
  4  5  1  0
  6  5  1  6
  6  7  1  0
  7  8  2  0
  8  9  1  0
  9 10  2  0
 10 11  1  0
 11 12  2  0
 12 13  1  0
 13 14  1  1
 13 15  1  0
 15 16  1  6
 16 17  1  0
 17 18  1  0
 18 19  2  0
 20 18  1  1
 10 21  1  0
 21 22  1  0
 22 23  1  0
  5 24  2  0
 24 25  1  0
 25 26  1  0
 26 27  1  0
 25 28  2  0
 28 29  1  0
 29 30  1  0
 28  3  1  0
 20  6  1  0
 12  7  1  0
 20 15  1  0
 23  9  1  0
M  END
>  <zinc_id>  (1) 
ZINC000003874715

>  <smiles>  (1) 
COc1cc([C@H]2c3cc4c(cc3[C@H](O)[C@H]3COC(=O)[C@H]23)OCO4)cc(OC)c1OC

$$$$
