
     RDKit          3D

 26 29  0  0  0  0  0  0  0  0999 V2000
    2.0680   -1.2337   -1.4664 C   0  0  0  0  0  0  0  0  0  0  0  0
    1.7132   -0.4608   -0.2770 C   0  0  2  0  0  0  0  0  0  0  0  0
    1.1403   -1.1438    0.8154 C   0  0  0  0  0  0  0  0  0  0  0  0
   -0.3802   -1.6203    0.5875 C   0  0  2  0  0  0  0  0  0  0  0  0
   -0.1793   -2.1714   -0.7797 O   0  0  0  0  0  0  0  0  0  0  0  0
   -0.9974   -0.0949    0.2823 C   0  0  1  0  0  0  0  0  0  0  0  0
   -0.4381    0.1788   -1.2403 C   0  0  1  0  0  0  0  0  0  0  0  0
   -1.1935    1.5734   -1.4558 C   0  0  0  0  0  0  0  0  0  0  0  0
   -2.6110    1.5323   -1.4435 C   0  0  0  0  0  0  0  0  0  0  0  0
   -3.1393    0.7431   -0.2791 C   0  0  0  0  0  0  0  0  0  0  0  0
   -4.0717    1.2723    0.4829 C   0  0  0  0  0  0  0  0  0  0  0  0
   -4.5464    0.4668    1.5825 C   0  0  0  0  0  0  0  0  0  0  0  0
   -5.4424    0.9071    2.3616 O   0  0  0  0  0  0  0  0  0  0  0  0
   -3.9564   -0.8367    1.7398 C   0  0  0  0  0  0  0  0  0  0  0  0
   -3.0339   -1.3211    0.9653 C   0  0  0  0  0  0  0  0  0  0  0  0
   -2.4975   -0.5854   -0.1452 C   0  0  2  0  0  0  0  0  0  0  0  0
   -2.4539   -1.2844   -1.4338 C   0  0  0  0  0  0  0  0  0  0  0  0
    0.9620    0.9185   -0.6290 C   0  0  2  0  0  0  0  0  0  0  0  0
    1.7294    1.0362   -2.0336 C   0  0  0  0  0  0  0  0  0  0  0  0
    3.1248    0.9733   -1.4346 C   0  0  0  0  0  0  0  0  0  0  0  0
    2.9589    0.3463   -0.0148 C   0  0  1  0  0  0  0  0  0  0  0  0
    2.7382    1.4038    0.8168 O   0  0  0  0  0  0  0  0  0  0  0  0
    4.1818   -0.3812    0.2039 C   0  0  0  0  0  0  0  0  0  0  0  0
    4.5294   -1.3495   -0.4499 O   0  0  0  0  0  0  0  0  0  0  0  0
    5.1078    0.0253    1.2696 C   0  0  0  0  0  0  0  0  0  0  0  0
    4.6874    1.1058    1.9750 O   0  0  0  0  0  0  0  0  0  0  0  0
  2  1  1  6
  2  3  1  0
  3  4  1  0
  4  5  1  6
  6  4  1  6
  6  7  1  0
  7  8  1  6
  8  9  1  0
  9 10  1  0
 10 11  2  0
 11 12  1  0
 12 13  2  0
 12 14  1  0
 14 15  2  0
 15 16  1  0
 16 17  1  6
  7 18  1  0
 18 19  1  6
 19 20  1  0
 20 21  1  0
 21 22  1  1
 21 23  1  0
 23 24  2  0
 23 25  1  0
 25 26  1  0
 18  2  1  0
 21  2  1  0
 16  6  1  0
 16 10  1  0
M  END
>  <zinc_id>  (1) 
ZINC000003833821

>  <smiles>  (1) 
C[C@]12C[C@H](O)[C@H]3[C@@H](CCC4=CC(=O)C=C[C@@]43C)[C@@H]1CC[C@]2(O)C(=O)CO

$$$$
