
     RDKit          3D

 31 34  0  0  0  0  0  0  0  0999 V2000
    5.9171    3.5218   -1.5357 C   0  0  0  0  0  0  0  0  0  0  0  0
    5.1274    2.4984   -0.9407 O   0  0  0  0  0  0  0  0  0  0  0  0
    5.6431    1.7077    0.0723 C   0  0  0  0  0  0  0  0  0  0  0  0
    6.8471    1.9608    0.4195 O   0  0  0  0  0  0  0  0  0  0  0  0
    4.8972    0.6781    0.6968 N   0  0  0  0  0  0  0  0  0  0  0  0
    5.5148   -0.1104    1.7395 C   0  0  0  0  0  0  0  0  0  0  0  0
    3.5629    0.3826    0.3411 C   0  0  0  0  0  0  0  0  0  0  0  0
    3.1850   -0.8399   -0.1701 C   0  0  0  0  0  0  0  0  0  0  0  0
    4.1440   -1.8551   -0.3607 N   0  0  0  0  0  0  0  0  0  0  0  0
    1.8871   -1.0728   -0.4937 N   0  0  0  0  0  0  0  0  0  0  0  0
    0.9502   -0.1320   -0.3275 C   0  0  0  0  0  0  0  0  0  0  0  0
   -0.4496   -0.3528   -0.6635 C   0  0  0  0  0  0  0  0  0  0  0  0
   -1.4726    0.5207   -0.5412 N   0  0  0  0  0  0  0  0  0  0  0  0
   -2.6152   -0.0113   -0.9383 N   0  0  0  0  0  0  0  0  0  0  0  0
   -3.9178    0.5971   -0.9627 C   0  0  0  0  0  0  0  0  0  0  0  0
   -4.5985    0.3380    0.3446 C   0  0  0  0  0  0  0  0  0  0  0  0
   -5.5937   -0.6339    0.3665 C   0  0  0  0  0  0  0  0  0  0  0  0
   -6.2456   -0.9025    1.5527 C   0  0  0  0  0  0  0  0  0  0  0  0
   -5.8805   -0.1847    2.6938 C   0  0  0  0  0  0  0  0  0  0  0  0
   -4.9017    0.7709    2.6727 C   0  0  0  0  0  0  0  0  0  0  0  0
   -4.2351    1.0504    1.4752 C   0  0  0  0  0  0  0  0  0  0  0  0
   -3.2621    1.9929    1.4316 F   0  0  0  0  0  0  0  0  0  0  0  0
   -2.3961   -1.2904   -1.3512 C   0  0  0  0  0  0  0  0  0  0  0  0
   -3.1960   -2.2504   -1.8354 N   0  0  0  0  0  0  0  0  0  0  0  0
   -2.7094   -3.4775   -2.1796 C   0  0  0  0  0  0  0  0  0  0  0  0
   -1.3675   -3.7319   -2.0242 C   0  0  0  0  0  0  0  0  0  0  0  0
   -0.5585   -2.7290   -1.5226 C   0  0  0  0  0  0  0  0  0  0  0  0
   -1.0447   -1.4900   -1.1746 C   0  0  0  0  0  0  0  0  0  0  0  0
    1.3085    1.0659    0.1711 N   0  0  0  0  0  0  0  0  0  0  0  0
    2.5881    1.3446    0.5082 C   0  0  0  0  0  0  0  0  0  0  0  0
    2.8719    2.6346    1.0287 N   0  0  0  0  0  0  0  0  0  0  0  0
  1  2  1  0
  2  3  1  0
  3  4  2  0
  3  5  1  0
  5  6  1  0
  5  7  1  0
  7  8  2  0
  8  9  1  0
  8 10  1  0
 10 11  2  0
 11 12  1  0
 12 13  2  0
 13 14  1  0
 14 15  1  0
 15 16  1  0
 16 17  2  0
 17 18  1  0
 18 19  2  0
 19 20  1  0
 20 21  2  0
 21 22  1  0
 14 23  1  0
 23 24  2  0
 24 25  1  0
 25 26  2  0
 26 27  1  0
 27 28  2  0
 11 29  1  0
 29 30  2  0
 30 31  1  0
 30  7  1  0
 28 12  1  0
 21 16  1  0
 28 23  1  0
M  END
>  <zinc_id>  (1) 
ZINC000003819392

>  <smiles>  (1) 
COC(=O)N(C)c1c(N)nc(-c2nn(Cc3ccccc3F)c3ncccc23)nc1N

$$$$
