
     RDKit          3D

 20 21  0  0  0  0  0  0  0  0999 V2000
   -4.4796    1.9180    0.2986 C   0  0  0  0  0  0  0  0  0  0  0  0
   -3.7860    0.7045   -0.5162 C   0  0  1  0  0  0  0  0  0  0  0  0
   -4.0204    1.3084   -1.8641 O   0  0  0  0  0  0  0  0  0  0  0  0
   -2.2290    1.3111   -0.3697 C   0  0  1  0  0  0  0  0  0  0  0  0
   -2.2078    1.2342    1.1917 C   0  0  0  0  0  0  0  0  0  0  0  0
   -2.8349    1.8286    2.0552 O   0  0  0  0  0  0  0  0  0  0  0  0
   -1.2015    0.2346    1.1911 N   0  0  0  0  0  0  0  0  0  0  0  0
   -0.1525   -0.6703    1.4102 C   0  0  0  0  0  0  0  0  0  0  0  0
    0.0658   -1.3394    2.7096 C   0  0  0  0  0  0  0  0  0  0  0  0
    1.0181   -2.1343    2.8707 O   0  0  0  0  0  0  0  0  0  0  0  0
   -0.7500   -1.1364    3.8138 O   0  0  0  0  0  0  0  0  0  0  0  0
    0.5806   -0.7999    0.2941 C   0  0  0  0  0  0  0  0  0  0  0  0
    1.9930   -1.8587    0.1813 S   0  0  0  0  0  0  0  0  0  0  0  0
    2.7362   -1.7500   -1.4700 C   0  0  0  0  0  0  0  0  0  0  0  0
    3.3237   -0.4013   -1.7574 C   0  0  0  0  0  0  0  0  0  0  0  0
    3.8824   -0.4424   -3.0975 N   0  0  0  0  0  0  0  0  0  0  0  0
    4.5238    0.6783   -3.6941 C   0  0  0  0  0  0  0  0  0  0  0  0
    5.1831    1.4556   -2.8896 N   0  0  0  0  0  0  0  0  0  0  0  0
   -0.0639    0.1180   -0.7136 C   0  0  0  0  0  0  0  0  0  0  0  0
   -1.5813   -0.2587   -0.2774 C   0  0  2  0  0  0  0  0  0  0  0  0
  2  1  1  1
  2  3  1  0
  2  4  1  0
  4  5  1  1
  5  6  2  0
  5  7  1  0
  7  8  1  0
  8  9  1  0
  9 10  2  0
  9 11  1  0
  8 12  2  0
 12 13  1  0
 13 14  1  0
 14 15  1  0
 15 16  1  0
 16 17  1  0
 17 18  2  0
 12 19  1  0
 20 19  1  6
 20  4  1  0
 20  7  1  0
M  END
>  <zinc_id>  (1) 
ZINC000004097225

>  <smiles>  (1) 
C[C@@H](O)[C@H]1C(=O)N2C(C(=O)O)=C(SCCNC=N)C[C@H]12

$$$$
