
     RDKit          3D

 24 26  0  0  0  0  0  0  0  0999 V2000
    6.1744    0.5566   -0.4678 Cl  0  0  0  0  0  0  0  0  0  0  0  0
    4.6920    0.1738   -1.0655 C   0  0  0  0  0  0  0  0  0  0  0  0
    4.2574    0.7031   -2.2386 C   0  0  0  0  0  0  0  0  0  0  0  0
    3.0219    0.4087   -2.7761 C   0  0  0  0  0  0  0  0  0  0  0  0
    2.1531   -0.4494   -2.1398 C   0  0  0  0  0  0  0  0  0  0  0  0
    0.8225   -0.7778   -2.6965 C   0  0  0  0  0  0  0  0  0  0  0  0
   -0.3403    0.4537   -2.0412 S   0  0  0  0  0  0  0  0  0  0  0  0
   -0.2920    0.0212   -0.1443 C   0  0  2  0  0  0  0  0  0  0  0  0
   -0.9263   -1.3896   -0.3390 C   0  0  0  0  0  0  0  0  0  0  0  0
   -1.0375   -2.1370    0.8484 N   0  0  0  0  0  0  0  0  0  0  0  0
   -2.0374   -2.1999    1.7138 C   0  0  0  0  0  0  0  0  0  0  0  0
   -1.7600   -3.0470    2.7482 C   0  0  0  0  0  0  0  0  0  0  0  0
   -0.5144   -3.5234    2.4882 N   0  0  0  0  0  0  0  0  0  0  0  0
   -0.0893   -2.9688    1.3392 C   0  0  0  0  0  0  0  0  0  0  0  0
   -1.4752    0.8733    0.2800 C   0  0  0  0  0  0  0  0  0  0  0  0
   -2.7286    0.4046    0.0563 C   0  0  0  0  0  0  0  0  0  0  0  0
   -3.8760    1.1551    0.3776 C   0  0  0  0  0  0  0  0  0  0  0  0
   -3.7372    2.4078    0.9384 C   0  0  0  0  0  0  0  0  0  0  0  0
   -5.1746    3.3635    1.3521 Cl  0  0  0  0  0  0  0  0  0  0  0  0
   -2.4716    2.8841    1.1652 C   0  0  0  0  0  0  0  0  0  0  0  0
   -1.3658    2.1144    0.8346 C   0  0  0  0  0  0  0  0  0  0  0  0
    0.2746    2.6676    1.1019 Cl  0  0  0  0  0  0  0  0  0  0  0  0
    2.5986   -0.9935   -0.9362 C   0  0  0  0  0  0  0  0  0  0  0  0
    3.8317   -0.7011   -0.3988 C   0  0  0  0  0  0  0  0  0  0  0  0
  1  2  1  0
  2  3  2  0
  3  4  1  0
  4  5  2  0
  5  6  1  0
  6  7  1  0
  7  8  1  0
  8  9  1  6
  9 10  1  0
 10 11  1  0
 11 12  2  0
 12 13  1  0
 13 14  2  0
  8 15  1  0
 15 16  2  0
 16 17  1  0
 17 18  2  0
 18 19  1  0
 18 20  1  0
 20 21  2  0
 21 22  1  0
  5 23  1  0
 23 24  2  0
 24  2  1  0
 14 10  1  0
 21 15  1  0
M  END
>  <zinc_id>  (1) 
ZINC000000601250

>  <smiles>  (1) 
Clc1ccc(CS[C@H](Cn2ccnc2)c2ccc(Cl)cc2Cl)cc1

$$$$
