
     RDKit          2D

 35 36  0  0  0  0  0  0  0  0999 V2000
    1.6851   -0.0240    0.0000 C   0  0  0  0  0  0  0  0  0  0  0  0
    1.4376   -1.5034    0.0000 C   0  0  0  0  0  0  0  0  0  0  0  0
    0.0326   -2.0287    0.0000 C   0  0  0  0  0  0  0  0  0  0  0  0
   -1.1249   -1.0746    0.0000 C   0  0  0  0  0  0  0  0  0  0  0  0
   -0.8773    0.4048    0.0000 O   0  0  0  0  0  0  0  0  0  0  0  0
   -2.5299   -1.5999    0.0000 O   0  0  0  0  0  0  0  0  0  0  0  0
   -3.6873   -0.6458    0.0000 C   0  0  0  0  0  0  0  0  0  0  0  0
   -5.0923   -1.1712    0.0000 C   0  0  0  0  0  0  0  0  0  0  0  0
   -6.2498   -0.2171    0.0000 C   0  0  0  0  0  0  0  0  0  0  0  0
   -7.6548   -0.7424    0.0000 C   0  0  0  0  0  0  0  0  0  0  0  0
   -8.8122    0.2117    0.0000 C   0  0  0  0  0  0  0  0  0  0  0  0
  -10.2172   -0.3136    0.0000 C   0  0  0  0  0  0  0  0  0  0  0  0
  -11.3747    0.6405    0.0000 C   0  0  0  0  0  0  0  0  0  0  0  0
  -12.7797    0.1152    0.0000 C   0  0  0  0  0  0  0  0  0  0  0  0
  -13.9371    1.0693    0.0000 C   0  0  0  0  0  0  0  0  0  0  0  0
  -13.6896    2.5487    0.0000 O   0  0  0  0  0  0  0  0  0  0  0  0
  -15.3421    0.5439    0.0000 O   0  0  0  0  0  0  0  0  0  0  0  0
    2.5950   -2.4575    0.0000 C   0  0  0  0  0  0  0  0  0  0  0  0
    4.0000   -1.9322    0.0000 C   0  0  0  0  0  0  0  0  0  0  0  0
    4.2476   -0.4527    0.0000 O   0  0  0  0  0  0  0  0  0  0  0  0
    5.6526    0.0726    0.0000 C   0  0  0  0  0  0  0  0  0  0  0  0
    6.8100   -0.8815    0.0000 C   0  0  0  0  0  0  0  0  0  0  0  0
    8.2150   -0.3562    0.0000 C   0  0  0  0  0  0  0  0  0  0  0  0
    8.4626    1.1233    0.0000 C   0  0  0  0  0  0  0  0  0  0  0  0
    9.4167    2.2807    0.0000 O   0  0  0  0  0  0  0  0  0  0  0  0
    7.9373    2.5283    0.0000 C   0  0  0  0  0  0  0  0  0  0  0  0
    6.7798    3.4824    0.0000 C   0  0  0  0  0  0  0  0  0  0  0  0
    7.0274    4.9618    0.0000 C   0  0  0  0  0  0  0  0  0  0  0  0
    5.3748    2.9570    0.0000 C   0  0  0  0  0  0  0  0  0  0  0  0
    4.2174    3.9111    0.0000 C   0  0  0  0  0  0  0  0  0  0  0  0
    5.1273    1.4776    0.0000 O   0  0  0  0  0  0  0  0  0  0  0  0
    6.5625   -2.3609    0.0000 C   0  0  0  0  0  0  0  0  0  0  0  0
    7.7199   -3.3150    0.0000 O   0  0  0  0  0  0  0  0  0  0  0  0
    5.1575   -2.8863    0.0000 C   0  0  0  0  0  0  0  0  0  0  0  0
    4.9099   -4.3657    0.0000 O   0  0  0  0  0  0  0  0  0  0  0  0
  1  2  1  0
  2  3  2  0
  3  4  1  0
  4  5  2  0
  4  6  1  0
  6  7  1  0
  7  8  1  0
  8  9  1  0
  9 10  1  0
 10 11  1  0
 11 12  1  0
 12 13  1  0
 13 14  1  0
 14 15  1  0
 15 16  2  0
 15 17  1  0
  2 18  1  0
 19 18  1  6
 19 20  1  0
 20 21  1  0
 21 22  1  0
 22 23  1  6
 24 23  1  1
 24 25  1  0
 26 25  1  6
 26 27  1  0
 27 28  1  6
 27 29  1  0
 29 30  1  1
 29 31  1  0
 22 32  1  0
 32 33  1  1
 32 34  1  0
 34 35  1  1
 34 19  1  0
 26 24  1  0
M  END
>  <zinc_id>  (1) 
ZINC000004102194

>  <smiles>  (1) 
C/C(=C\C(=O)OCCCCCCCCC(=O)O)C[C@@H]1OC[C@H](C[C@@H]2O[C@H]2[C@@H](C)[C@H](C)O)[C@@H](O)[C@H]1O

$$$$
