
     RDKit          2D

  5  5  0  0  0  0  0  0  0  0999 V2000
   -2.2332    0.4144    0.0000 Cl  0  0  0  0  0  0  0  0  0  0  0  0
   -1.1412   -0.6140    0.0000 C   0  0  0  0  0  0  0  0  0  0  0  0
    0.2954   -0.1826    0.0000 C   0  0  0  0  0  0  0  0  0  0  0  0
    1.7553   -0.5272    0.0000 C   0  0  0  0  0  0  0  0  0  0  0  0
    1.3238    0.9094    0.0000 O   0  0  0  0  0  0  0  0  0  0  0  0
  1  2  1  0
  3  2  1  6
  3  4  1  0
  4  5  1  0
  5  3  1  0
M  END
>  <zinc_id>  (1) 
ZINC000002016052

>  <smiles>  (1) 
ClC[C@H]1CO1

$$$$
