
     RDKit          3D

 27 29  0  0  0  0  0  0  0  0999 V2000
    4.9873    2.5509    0.2074 C   0  0  0  0  0  0  0  0  0  0  0  0
    4.3904    1.2023    0.5446 C   0  0  0  0  0  0  0  0  0  0  0  0
    5.3004    0.4111    1.4486 C   0  0  0  0  0  0  0  0  0  0  0  0
    3.9829    0.4728   -0.6261 N   0  0  0  0  0  0  0  0  0  0  0  0
    4.6342    1.0711   -1.7716 C   0  0  0  0  0  0  0  0  0  0  0  0
    2.5572    0.5983   -0.7606 C   0  0  0  0  0  0  0  0  0  0  0  0
    1.9105   -0.6608   -1.2946 C   0  0  0  0  0  0  0  0  0  0  0  0
    0.5161   -0.4274   -1.3864 O   0  0  0  0  0  0  0  0  0  0  0  0
   -0.2590   -0.1025   -0.2830 C   0  0  0  0  0  0  0  0  0  0  0  0
    0.3569   -0.0252    0.8242 O   0  0  0  0  0  0  0  0  0  0  0  0
   -1.6846    0.1497   -0.2968 C   0  0  0  0  0  0  0  0  0  0  0  0
   -2.5498   -0.9074   -0.7463 C   0  0  0  0  0  0  0  0  0  0  0  0
   -2.1794   -1.7671   -1.7885 C   0  0  0  0  0  0  0  0  0  0  0  0
   -2.9878   -2.7745   -2.2271 C   0  0  0  0  0  0  0  0  0  0  0  0
   -4.2197   -2.9828   -1.6470 C   0  0  0  0  0  0  0  0  0  0  0  0
   -4.6015   -2.1555   -0.6281 C   0  0  0  0  0  0  0  0  0  0  0  0
   -3.7740   -1.1148   -0.1702 C   0  0  0  0  0  0  0  0  0  0  0  0
   -4.2510   -0.3213    0.8767 O   0  0  0  0  0  0  0  0  0  0  0  0
   -3.4341    0.7135    1.3358 C   0  0  0  0  0  0  0  0  0  0  0  0
   -3.8706    1.5220    2.3714 C   0  0  0  0  0  0  0  0  0  0  0  0
   -3.1394    2.5528    2.8807 C   0  0  0  0  0  0  0  0  0  0  0  0
   -1.9068    2.7915    2.3286 C   0  0  0  0  0  0  0  0  0  0  0  0
   -1.4421    2.0208    1.3108 C   0  0  0  0  0  0  0  0  0  0  0  0
   -2.2009    0.9600    0.7908 C   0  0  0  0  0  0  0  0  0  0  0  0
    4.3294   -0.9189   -0.5959 C   0  0  0  0  0  0  0  0  0  0  0  0
    3.7586   -1.6631    0.5669 C   0  0  0  0  0  0  0  0  0  0  0  0
    5.7768   -1.1955   -0.8550 C   0  0  0  0  0  0  0  0  0  0  0  0
  1  2  1  0
  2  3  1  0
  2  4  1  0
  4  5  1  0
  4  6  1  0
  6  7  1  0
  7  8  1  0
  8  9  1  0
  9 10  2  0
  9 11  1  0
 11 12  1  0
 12 13  2  0
 13 14  1  0
 14 15  2  0
 15 16  1  0
 16 17  2  0
 17 18  1  0
 18 19  1  0
 19 20  2  0
 20 21  1  0
 21 22  2  0
 22 23  1  0
 23 24  2  0
  4 25  1  0
 25 26  1  0
 25 27  1  0
 24 11  1  0
 17 12  1  0
 24 19  1  0
M  CHG  1   4   1
M  END
>  <zinc_id>  (1) 
ZINC000001530761

>  <smiles>  (1) 
CC(C)[N+](C)(CCOC(=O)C1c2ccccc2Oc2ccccc21)C(C)C

$$$$
