
     RDKit          3D

 10  9  0  0  0  0  0  0  0  0999 V2000
   -2.8207   -1.0346    0.8359 C   0  0  0  0  0  0  0  0  0  0  0  0
   -1.8134   -0.5301   -0.0329 C   0  0  0  0  0  0  0  0  0  0  0  0
   -2.1902   -0.1789   -1.2057 O   0  0  0  0  0  0  0  0  0  0  0  0
   -0.4682   -0.4235    0.3924 N   0  0  0  0  0  0  0  0  0  0  0  0
    0.5393    0.1503   -0.6683 C   0  0  1  0  0  0  0  0  0  0  0  0
    0.8304    1.5883    0.1254 C   0  0  0  0  0  0  0  0  0  0  0  0
   -0.6352    2.4895    0.3141 S   0  0  0  0  0  0  0  0  0  0  0  0
    1.8409   -0.5479   -0.0414 C   0  0  0  0  0  0  0  0  0  0  0  0
    1.6651   -1.3832    0.8501 O   0  0  0  0  0  0  0  0  0  0  0  0
    3.0518   -0.1300   -0.5697 O   0  0  0  0  0  0  0  0  0  0  0  0
  1  2  1  0
  2  3  2  0
  2  4  1  0
  4  5  1  0
  5  6  1  1
  6  7  1  0
  5  8  1  0
  8  9  2  0
  8 10  1  0
M  END
>  <zinc_id>  (1) 
ZINC000003589203

>  <smiles>  (1) 
CC(=O)N[C@@H](CS)C(=O)O

$$$$
