
     RDKit          3D

  7  7  0  0  0  0  0  0  0  0999 V2000
    0.9707    1.8974   -0.4776 C   0  0  0  0  0  0  0  0  0  0  0  0
    0.1039    0.7558   -0.2533 N   0  0  0  0  0  0  0  0  0  0  0  0
   -1.2014    0.7722    0.0927 C   0  0  0  0  0  0  0  0  0  0  0  0
   -1.6603   -0.5261    0.2081 C   0  0  0  0  0  0  0  0  0  0  0  0
   -0.6199   -1.3320   -0.0715 N   0  0  0  0  0  0  0  0  0  0  0  0
    0.4424   -0.5426   -0.3493 C   0  0  0  0  0  0  0  0  0  0  0  0
    1.9647   -1.0248   -0.7551 S   0  0  0  0  0  0  0  0  0  0  0  0
  1  2  1  0
  2  3  1  0
  3  4  2  0
  4  5  1  0
  5  6  1  0
  6  7  2  0
  6  2  1  0
M  END
>  <zinc_id>  (1) 
ZINC000001187543

>  <smiles>  (1) 
Cn1cc[nH]c1=S

$$$$
