
     RDKit          3D

  6  5  0  0  0  0  0  0  0  0999 V2000
   -1.4597   -1.1540   -0.5142 O   0  0  0  0  0  0  0  0  0  0  0  0
   -0.9177   -0.6084    0.6224 C   0  0  0  0  0  0  0  0  0  0  0  0
   -0.0500    0.5883    0.3843 C   0  0  0  0  0  0  0  0  0  0  0  0
   -0.7029    1.6444   -0.2231 O   0  0  0  0  0  0  0  0  0  0  0  0
    1.1974    0.2815   -0.3884 C   0  0  0  0  0  0  0  0  0  0  0  0
    1.9330   -0.7518    0.1189 O   0  0  0  0  0  0  0  0  0  0  0  0
  1  2  1  0
  2  3  1  0
  3  4  1  0
  3  5  1  0
  5  6  1  0
M  END
>  <zinc_id>  (1) 
ZINC000000895048

>  <smiles>  (1) 
OCC(O)CO

$$$$
