
     RDKit          3D

 26 27  0  0  0  0  0  0  0  0999 V2000
    6.0541   -2.1352    0.7433 C   0  0  0  0  0  0  0  0  0  0  0  0
    6.1218   -1.5916    0.2288 C   0  0  0  0  0  0  0  0  0  0  0  0
    6.2343   -0.7344   -0.8378 N   0  0  0  0  0  0  0  0  0  0  0  0
    6.5956    0.5874   -0.6829 C   0  0  0  0  0  0  0  0  0  0  0  0
    5.6215    1.4863   -0.0866 C   0  0  0  0  0  0  0  0  0  0  0  0
    5.1316   -0.9759   -1.7728 C   0  0  0  0  0  0  0  0  0  0  0  0
    3.9144   -0.5746   -1.0527 C   0  0  0  0  0  0  0  0  0  0  0  0
    2.9379   -0.2058   -0.4789 C   0  0  0  0  0  0  0  0  0  0  0  0
    1.8824    0.2565    0.1941 C   0  0  0  0  0  0  0  0  0  0  0  0
    0.6607    0.0956    0.2829 O   0  0  0  0  0  0  0  0  0  0  0  0
   -0.5864    0.1466   -0.2918 C   0  0  0  0  0  0  0  0  0  0  0  0
   -0.6637    0.5001   -1.4952 O   0  0  0  0  0  0  0  0  0  0  0  0
   -1.7782   -0.1734    0.5291 C   0  0  2  0  0  0  0  0  0  0  0  0
   -1.3425   -0.7881    1.7247 O   0  0  0  0  0  0  0  0  0  0  0  0
   -2.8225   -0.9377   -0.1191 C   0  0  0  0  0  0  0  0  0  0  0  0
   -2.5281   -1.8987   -1.0028 C   0  0  0  0  0  0  0  0  0  0  0  0
   -3.4975   -2.7654   -1.6138 C   0  0  0  0  0  0  0  0  0  0  0  0
   -4.8338   -2.5618   -1.2708 C   0  0  0  0  0  0  0  0  0  0  0  0
   -5.0963   -1.5464   -0.3640 C   0  0  0  0  0  0  0  0  0  0  0  0
   -4.1555   -0.7887    0.1909 C   0  0  0  0  0  0  0  0  0  0  0  0
   -2.2679    1.2221    0.9684 C   0  0  0  0  0  0  0  0  0  0  0  0
   -3.4805    1.2921    1.8148 C   0  0  0  0  0  0  0  0  0  0  0  0
   -4.2712    2.4889    1.4679 C   0  0  0  0  0  0  0  0  0  0  0  0
   -3.4326    3.7473    1.3854 C   0  0  0  0  0  0  0  0  0  0  0  0
   -2.1989    3.6048    0.5437 C   0  0  0  0  0  0  0  0  0  0  0  0
   -2.1986    2.2502   -0.1035 C   0  0  0  0  0  0  0  0  0  0  0  0
  1  2  1  0
  2  3  1  0
  3  4  1  0
  4  5  1  0
  3  6  1  0
  6  7  1  0
  7  8  3  0
  8  9  1  0
  9 10  1  0
 10 11  1  0
 11 12  2  0
 11 13  1  0
 13 14  1  1
 13 15  1  0
 15 16  2  0
 16 17  1  0
 17 18  2  0
 18 19  1  0
 19 20  2  0
 13 21  1  0
 21 22  1  0
 22 23  1  0
 23 24  1  0
 24 25  1  0
 25 26  1  0
 20 15  1  0
 26 21  1  0
M  END
>  <zinc_id>  (1) 
ZINC000001530752

>  <smiles>  (1) 
CCN(CC)CC#CCOC(=O)[C@](O)(c1ccccc1)C1CCCCC1

$$$$
