
     RDKit          3D

 15 15  0  0  0  0  0  0  0  0999 V2000
   -1.5298    2.7136   -0.6885 C   0  0  0  0  0  0  0  0  0  0  0  0
   -0.6338    1.7910   -0.1686 C   0  0  0  0  0  0  0  0  0  0  0  0
   -1.5541    0.5957    0.4221 C   0  0  1  0  0  0  0  0  0  0  0  0
   -2.2434    0.2435   -0.9975 C   0  0  0  0  0  0  0  0  0  0  0  0
   -0.4156   -0.5419    0.3360 C   0  0  0  0  0  0  0  0  0  0  0  0
   -1.0694   -1.7964    0.8508 C   0  0  0  0  0  0  0  0  0  0  0  0
   -2.2566   -2.2519    0.0938 C   0  0  0  0  0  0  0  0  0  0  0  0
    0.1446   -0.6308   -0.9863 C   0  0  0  0  0  0  0  0  0  0  0  0
   -0.3941   -1.1210   -2.0058 O   0  0  0  0  0  0  0  0  0  0  0  0
    1.4726   -0.1170   -1.2326 N   0  0  0  0  0  0  0  0  0  0  0  0
    2.3286    0.3645   -0.2343 C   0  0  0  0  0  0  0  0  0  0  0  0
    3.4795    0.8097   -0.4438 O   0  0  0  0  0  0  0  0  0  0  0  0
    1.8662    0.3499    1.1086 N   0  0  0  0  0  0  0  0  0  0  0  0
    0.5743   -0.1459    1.3701 C   0  0  0  0  0  0  0  0  0  0  0  0
    0.2310   -0.2629    2.5761 O   0  0  0  0  0  0  0  0  0  0  0  0
  1  2  1  0
  2  3  1  0
  3  4  1  6
  3  5  1  0
  5  6  1  0
  6  7  1  0
  5  8  1  0
  8  9  2  0
  8 10  1  0
 10 11  1  0
 11 12  2  0
 11 13  1  0
 13 14  1  0
 14 15  2  0
 14  5  1  0
M  END
>  <zinc_id>  (1) 
ZINC000003651680

>  <smiles>  (1) 
CC[C@@H](C)C1(CC)C(=O)NC(=O)NC1=O

$$$$
