
     RDKit          3D

 27 29  0  0  0  0  0  0  0  0999 V2000
   -4.5315   -3.0418    0.9391 C   0  0  0  0  0  0  0  0  0  0  0  0
   -3.4952   -2.3012    0.5461 C   0  0  0  0  0  0  0  0  0  0  0  0
   -3.5001   -0.9323    0.7037 C   0  0  0  0  0  0  0  0  0  0  0  0
   -2.4436   -0.1126    0.3103 C   0  0  0  0  0  0  0  0  0  0  0  0
   -2.5382    1.2190    0.5047 N   0  0  0  0  0  0  0  0  0  0  0  0
   -1.5010    1.9750    0.1122 C   0  0  0  0  0  0  0  0  0  0  0  0
   -1.5847    3.3510    0.2871 C   0  0  0  0  0  0  0  0  0  0  0  0
   -2.5904    3.8975    0.8126 O   0  0  0  0  0  0  0  0  0  0  0  0
   -0.5429    4.0937   -0.1281 N   0  0  0  0  0  0  0  0  0  0  0  0
    0.5443    3.5377   -0.6927 C   0  0  0  0  0  0  0  0  0  0  0  0
    1.4695    4.3421   -1.0478 O   0  0  0  0  0  0  0  0  0  0  0  0
    0.6568    2.2206   -0.8746 N   0  0  0  0  0  0  0  0  0  0  0  0
   -0.3291    1.3872   -0.4938 C   0  0  0  0  0  0  0  0  0  0  0  0
   -0.2546    0.0555   -0.6780 N   0  0  0  0  0  0  0  0  0  0  0  0
    0.9029   -0.5826   -1.2440 C   0  0  0  0  0  0  0  0  0  0  0  0
    1.8386   -1.1235   -0.0174 C   0  0  2  0  0  0  0  0  0  0  0  0
    2.0677    0.2201    0.6119 O   0  0  0  0  0  0  0  0  0  0  0  0
    3.2505   -1.0561   -0.9897 C   0  0  2  0  0  0  0  0  0  0  0  0
    2.9317   -2.3864   -1.6748 O   0  0  0  0  0  0  0  0  0  0  0  0
    4.3183   -1.8033    0.1233 C   0  0  2  0  0  0  0  0  0  0  0  0
    3.3382   -2.7479    0.7733 O   0  0  0  0  0  0  0  0  0  0  0  0
    4.2276   -0.6498    1.2851 C   0  0  0  0  0  0  0  0  0  0  0  0
    5.1042    0.3448    0.8366 O   0  0  0  0  0  0  0  0  0  0  0  0
   -1.3240   -0.6689   -0.2682 C   0  0  0  0  0  0  0  0  0  0  0  0
   -1.3236   -2.0522   -0.4254 C   0  0  0  0  0  0  0  0  0  0  0  0
   -2.3599   -2.8464   -0.0384 C   0  0  0  0  0  0  0  0  0  0  0  0
   -2.3314   -4.3392   -0.2210 C   0  0  0  0  0  0  0  0  0  0  0  0
  1  2  1  0
  2  3  2  0
  3  4  1  0
  4  5  1  0
  5  6  2  0
  6  7  1  0
  7  8  2  0
  7  9  1  0
  9 10  1  0
 10 11  2  0
 10 12  1  0
 12 13  2  0
 13 14  1  0
 14 15  1  0
 15 16  1  0
 16 17  1  1
 16 18  1  0
 18 19  1  6
 18 20  1  0
 20 21  1  1
 20 22  1  0
 22 23  1  0
 14 24  1  0
 24 25  1  0
 25 26  2  0
 26 27  1  0
 26  2  1  0
 24  4  2  0
 13  6  1  0
M  END
>  <zinc_id>  (1) 
ZINC000002036848

>  <smiles>  (1) 
Cc1cc2nc3c(=O)[nH]c(=O)nc-3n(C[C@H](O)[C@H](O)[C@H](O)CO)c2cc1C

$$$$
