
     RDKit          3D

 17 18  0  0  0  0  0  0  0  0999 V2000
   -1.5763    2.4105    2.0351 C   0  0  0  0  0  0  0  0  0  0  0  0
   -0.9830    1.5977    1.3525 O   0  0  0  0  0  0  0  0  0  0  0  0
   -0.7993    1.6853    0.0378 C   0  0  0  0  0  0  0  0  0  0  0  0
   -1.2324    2.6382   -0.6248 O   0  0  0  0  0  0  0  0  0  0  0  0
   -0.0442    0.6568   -0.8676 C   0  0  2  0  0  0  0  0  0  0  0  0
   -0.9503   -0.5892   -0.5382 C   0  0  0  0  0  0  0  0  0  0  0  0
   -1.7554   -1.0038   -1.5529 C   0  0  0  0  0  0  0  0  0  0  0  0
   -2.6196   -2.0798   -1.4508 C   0  0  0  0  0  0  0  0  0  0  0  0
   -2.6144   -2.7304   -0.2113 C   0  0  0  0  0  0  0  0  0  0  0  0
   -1.8067   -2.3075    0.7935 C   0  0  0  0  0  0  0  0  0  0  0  0
   -0.9694   -1.2276    0.6241 C   0  0  0  0  0  0  0  0  0  0  0  0
    1.2237    0.2795    0.2235 C   0  0  1  0  0  0  0  0  0  0  0  0
    1.9202   -0.7743   -0.8152 C   0  0  0  0  0  0  0  0  0  0  0  0
    3.1846   -1.1855   -0.0487 C   0  0  0  0  0  0  0  0  0  0  0  0
    3.5194   -0.1096    0.9651 C   0  0  0  0  0  0  0  0  0  0  0  0
    3.3990    1.2549    0.3400 C   0  0  0  0  0  0  0  0  0  0  0  0
    2.1042    1.4848   -0.2620 N   0  0  0  0  0  0  0  0  0  0  0  0
  1  2  1  0
  2  3  1  0
  3  4  2  0
  5  3  1  1
  5  6  1  0
  6  7  2  0
  7  8  1  0
  8  9  2  0
  9 10  1  0
 10 11  2  0
  5 12  1  0
 12 13  1  6
 13 14  1  0
 14 15  1  0
 15 16  1  0
 16 17  1  0
 11  6  1  0
 17 12  1  0
M  END
>  <zinc_id>  (1) 
ZINC000000896711

>  <smiles>  (1) 
COC(=O)[C@H](c1ccccc1)[C@H]1CCCCN1

$$$$
