
     RDKit          3D

  7  7  0  0  0  0  0  0  0  0999 V2000
    2.3038    0.0260   -0.6977 O   0  0  0  0  0  0  0  0  0  0  0  0
    0.9573    0.0335   -0.2881 C   0  0  0  0  0  0  0  0  0  0  0  0
    0.3407   -1.1393    0.1024 C   0  0  0  0  0  0  0  0  0  0  0  0
   -0.9733   -1.1938    0.5127 C   0  0  0  0  0  0  0  0  0  0  0  0
   -1.7172   -0.0443    0.5414 C   0  0  0  0  0  0  0  0  0  0  0  0
   -1.1208    1.1382    0.1554 C   0  0  0  0  0  0  0  0  0  0  0  0
    0.2095    1.1798   -0.2577 C   0  0  0  0  0  0  0  0  0  0  0  0
  1  2  1  0
  2  3  2  0
  3  4  1  0
  4  5  2  0
  5  6  1  0
  6  7  2  0
  7  2  1  0
M  END
>  <zinc_id>  (1) 
ZINC000005133329

>  <smiles>  (1) 
Oc1ccccc1

$$$$
