
     RDKit          3D

 26 30  0  0  0  0  0  0  0  0999 V2000
    1.2657   -1.2789    1.6286 C   0  0  0  0  0  0  0  0  0  0  0  0
    1.4341   -0.4570    0.4084 C   0  0  2  0  0  0  0  0  0  0  0  0
    0.9829    0.9269    0.4429 C   0  0  0  0  0  0  0  0  0  0  0  0
   -0.4497    1.0487    0.7998 C   0  0  0  0  0  0  0  0  0  0  0  0
   -1.3480    0.2589   -0.2820 C   0  0  1  0  0  0  0  0  0  0  0  0
   -0.8086   -1.2518    0.1999 C   0  0  1  0  0  0  0  0  0  0  0  0
   -1.6308   -2.0570   -0.8927 C   0  0  0  0  0  0  0  0  0  0  0  0
   -3.0377   -1.6973   -0.7532 C   0  0  0  0  0  0  0  0  0  0  0  0
   -3.5573   -0.6813   -0.0997 C   0  0  0  0  0  0  0  0  0  0  0  0
   -5.0420   -0.4234   -0.0367 C   0  0  0  0  0  0  0  0  0  0  0  0
   -5.1560    1.0660   -0.7721 C   0  0  1  0  0  0  0  0  0  0  0  0
   -6.6183    1.2029   -0.4061 O   0  0  0  0  0  0  0  0  0  0  0  0
   -4.6406    1.8478    0.5731 C   0  0  0  0  0  0  0  0  0  0  0  0
   -3.1485    1.6961    0.4867 C   0  0  0  0  0  0  0  0  0  0  0  0
   -2.6819    0.2699    0.6081 C   0  0  2  0  0  0  0  0  0  0  0  0
   -2.3868   -0.0358    2.0157 C   0  0  0  0  0  0  0  0  0  0  0  0
    0.5492   -1.0898   -0.7798 C   0  0  2  0  0  0  0  0  0  0  0  0
    1.2210   -2.5424   -0.4393 C   0  0  0  0  0  0  0  0  0  0  0  0
    2.6208   -2.0044   -0.6851 C   0  0  0  0  0  0  0  0  0  0  0  0
    2.7193   -0.7868   -0.1826 C   0  0  0  0  0  0  0  0  0  0  0  0
    3.8600    0.1295   -0.1742 C   0  0  0  0  0  0  0  0  0  0  0  0
    5.0433   -0.2594   -0.7560 C   0  0  0  0  0  0  0  0  0  0  0  0
    6.1077    0.6273   -0.7342 C   0  0  0  0  0  0  0  0  0  0  0  0
    6.0185    1.8802   -0.1510 C   0  0  0  0  0  0  0  0  0  0  0  0
    4.8614    2.2278    0.4034 N   0  0  0  0  0  0  0  0  0  0  0  0
    3.8221    1.3833    0.3916 C   0  0  0  0  0  0  0  0  0  0  0  0
  2  1  1  1
  2  3  1  0
  3  4  1  0
  5  4  1  1
  5  6  1  0
  6  7  1  6
  7  8  1  0
  8  9  2  0
  9 10  1  0
 10 11  1  0
 11 12  1  1
 11 13  1  0
 13 14  1  0
 14 15  1  0
 15 16  1  1
  6 17  1  0
 17 18  1  1
 18 19  1  0
 19 20  2  0
 20 21  1  0
 21 22  2  0
 22 23  1  0
 23 24  2  0
 24 25  1  0
 25 26  2  0
 17  2  1  0
 26 21  1  0
 20  2  1  0
 15  5  1  0
 15  9  1  0
M  END
>  <zinc_id>  (1) 
ZINC000003797541

>  <smiles>  (1) 
C[C@]12CC[C@H]3[C@@H](CC=C4C[C@@H](O)CC[C@@]43C)[C@@H]1CC=C2c1cccnc1

$$$$
