
     RDKit          3D

 21 24  0  0  0  0  0  0  0  0999 V2000
   -2.7298   -1.1509    0.7244 C   0  0  0  0  0  0  0  0  0  0  0  0
   -2.6519   -0.1334   -0.3299 C   0  0  2  0  0  0  0  0  0  0  0  0
   -2.0035   -0.4432   -1.5874 C   0  0  0  0  0  0  0  0  0  0  0  0
   -0.6271   -1.0110   -1.3136 C   0  0  0  0  0  0  0  0  0  0  0  0
    0.2584    0.1851   -0.6460 C   0  0  1  0  0  0  0  0  0  0  0  0
   -0.5455    0.0876    0.8424 C   0  0  1  0  0  0  0  0  0  0  0  0
    0.2588    1.3119    1.4781 C   0  0  0  0  0  0  0  0  0  0  0  0
    1.6438    0.8861    1.6720 C   0  0  0  0  0  0  0  0  0  0  0  0
    2.1884   -0.0419    0.9305 C   0  0  0  0  0  0  0  0  0  0  0  0
    3.5679   -0.5101    1.0746 C   0  0  0  0  0  0  0  0  0  0  0  0
    4.4903    0.2725   -0.0736 C   0  0  1  0  0  0  0  0  0  0  0  0
    4.9325   -1.0796   -0.7199 O   0  0  0  0  0  0  0  0  0  0  0  0
    3.2791    0.4981   -1.2032 C   0  0  0  0  0  0  0  0  0  0  0  0
    2.5109   -0.7630   -1.2803 C   0  0  0  0  0  0  0  0  0  0  0  0
    1.4836   -0.7648   -0.1730 C   0  0  2  0  0  0  0  0  0  0  0  0
    1.0016   -2.0958    0.2117 C   0  0  0  0  0  0  0  0  0  0  0  0
   -1.7787    1.1308    0.2652 C   0  0  2  0  0  0  0  0  0  0  0  0
   -2.6381    1.0625    1.6499 C   0  0  0  0  0  0  0  0  0  0  0  0
   -4.0010    1.3015    0.9743 C   0  0  0  0  0  0  0  0  0  0  0  0
   -3.9162    0.6061   -0.3432 C   0  0  0  0  0  0  0  0  0  0  0  0
   -4.7233    0.6517   -1.2223 O   0  0  0  0  0  0  0  0  0  0  0  0
  2  1  1  1
  2  3  1  0
  3  4  1  0
  5  4  1  6
  5  6  1  0
  6  7  1  1
  7  8  1  0
  8  9  2  0
  9 10  1  0
 10 11  1  0
 11 12  1  6
 11 13  1  0
 13 14  1  0
 14 15  1  0
 15 16  1  1
  6 17  1  0
 17 18  1  1
 18 19  1  0
 19 20  1  0
 20 21  2  0
 17  2  1  0
 20  2  1  0
 15  5  1  0
 15  9  1  0
M  END
>  <zinc_id>  (1) 
ZINC000003807917

>  <smiles>  (1) 
C[C@]12CC[C@H]3[C@@H](CC=C4C[C@@H](O)CC[C@@]43C)[C@@H]1CCC2=O

$$$$
