
     RDKit          3D

 10 10  0  0  0  0  0  0  0  0999 V2000
    1.0881    1.3205    1.7875 C   0  0  0  0  0  0  0  0  0  0  0  0
    2.1600    0.2064    1.1907 C   0  0  1  0  0  0  0  0  0  0  0  0
    1.1914   -1.0184    1.4233 N   0  0  0  0  0  0  0  0  0  0  0  0
    1.7194    0.4434   -0.3759 C   0  0  0  0  0  0  0  0  0  0  0  0
    0.3125    0.1414   -0.5254 C   0  0  0  0  0  0  0  0  0  0  0  0
   -0.0803   -1.1265   -0.8702 C   0  0  0  0  0  0  0  0  0  0  0  0
   -1.4046   -1.4179   -1.0128 C   0  0  0  0  0  0  0  0  0  0  0  0
   -2.3654   -0.4538   -0.8152 C   0  0  0  0  0  0  0  0  0  0  0  0
   -1.9731    0.8042   -0.4729 C   0  0  0  0  0  0  0  0  0  0  0  0
   -0.6479    1.1007   -0.3290 C   0  0  0  0  0  0  0  0  0  0  0  0
  2  1  1  1
  2  3  1  0
  2  4  1  0
  4  5  1  0
  5  6  2  0
  6  7  1  0
  7  8  2  0
  8  9  1  0
  9 10  2  0
 10  5  1  0
M  END
>  <zinc_id>  (1) 
ZINC000006036847

>  <smiles>  (1) 
C[C@@H](N)Cc1ccccc1

$$$$
