
     RDKit          3D

 15 15  0  0  0  0  0  0  0  0999 V2000
   -1.1567    1.4467    0.4228 N   0  0  0  0  0  0  0  0  0  0  0  0
   -1.9112    0.2360    1.0050 C   0  0  1  0  0  0  0  0  0  0  0  0
   -3.2206    0.3469    0.1489 C   0  0  0  0  0  0  0  0  0  0  0  0
   -3.4433    1.1828   -0.6864 O   0  0  0  0  0  0  0  0  0  0  0  0
   -4.1385   -0.6223    0.4322 O   0  0  0  0  0  0  0  0  0  0  0  0
   -1.2552   -1.0724    0.1466 C   0  0  1  0  0  0  0  0  0  0  0  0
   -1.5561   -0.6910   -1.2727 O   0  0  0  0  0  0  0  0  0  0  0  0
    0.2813   -0.6557    0.1249 C   0  0  0  0  0  0  0  0  0  0  0  0
    1.0930   -1.4577    0.9393 C   0  0  0  0  0  0  0  0  0  0  0  0
    2.4388   -1.1668    0.9295 C   0  0  0  0  0  0  0  0  0  0  0  0
    2.9650   -0.1581    0.1745 C   0  0  0  0  0  0  0  0  0  0  0  0
    4.3522    0.0869    0.2105 O   0  0  0  0  0  0  0  0  0  0  0  0
    2.1202    0.5910   -0.6011 C   0  0  0  0  0  0  0  0  0  0  0  0
    2.6521    1.6145   -1.3675 O   0  0  0  0  0  0  0  0  0  0  0  0
    0.7790    0.3190   -0.6064 C   0  0  0  0  0  0  0  0  0  0  0  0
  2  1  1  6
  2  3  1  0
  3  4  2  0
  3  5  1  0
  2  6  1  0
  6  7  1  6
  6  8  1  0
  8  9  2  0
  9 10  1  0
 10 11  2  0
 11 12  1  0
 11 13  1  0
 13 14  1  0
 13 15  2  0
 15  8  1  0
M  END
>  <zinc_id>  (1) 
ZINC000002015035

>  <smiles>  (1) 
N[C@@H](C(=O)O)[C@@H](O)c1ccc(O)c(O)c1

$$$$
