
     RDKit          3D

 18 17  0  0  0  0  0  0  0  0999 V2000
   -3.8470   -2.2808   -0.6553 C   0  0  0  0  0  0  0  0  0  0  0  0
   -2.8428   -2.7545   -0.5393 C   0  0  0  0  0  0  0  0  0  0  0  0
   -1.6169   -1.9715   -0.9378 C   0  0  0  0  0  0  0  0  0  0  0  0
   -1.5282   -0.6739   -0.1157 C   0  0  2  0  0  0  0  0  0  0  0  0
   -1.4526   -1.1254    1.3460 C   0  0  0  0  0  0  0  0  0  0  0  0
   -2.7020    0.1698   -0.3630 C   0  0  0  0  0  0  0  0  0  0  0  0
   -2.9675    1.3413    0.1793 O   0  0  0  0  0  0  0  0  0  0  0  0
   -2.4008    2.5521    0.1603 C   0  0  0  0  0  0  0  0  0  0  0  0
   -2.9144    3.7058    0.8774 N   0  0  0  0  0  0  0  0  0  0  0  0
   -1.3596    2.7533   -0.5045 O   0  0  0  0  0  0  0  0  0  0  0  0
   -0.2550    0.0200   -0.4772 C   0  0  0  0  0  0  0  0  0  0  0  0
    0.8945   -0.7583   -0.2119 O   0  0  0  0  0  0  0  0  0  0  0  0
    2.1337   -0.2197   -0.5105 C   0  0  0  0  0  0  0  0  0  0  0  0
    2.1837    0.9481   -1.0048 O   0  0  0  0  0  0  0  0  0  0  0  0
    3.3559   -0.9274   -0.2866 N   0  0  0  0  0  0  0  0  0  0  0  0
    4.6262   -0.3156   -0.6187 C   0  0  0  0  0  0  0  0  0  0  0  0
    4.9596    0.8792    0.2122 C   0  0  0  0  0  0  0  0  0  0  0  0
    5.7331   -1.3424   -0.6853 C   0  0  0  0  0  0  0  0  0  0  0  0
  1  2  1  0
  2  3  1  0
  3  4  1  0
  4  5  1  1
  4  6  1  0
  6  7  1  0
  7  8  1  0
  8  9  1  0
  8 10  2  0
  4 11  1  0
 11 12  1  0
 12 13  1  0
 13 14  2  0
 13 15  1  0
 15 16  1  0
 16 17  1  0
 16 18  1  0
M  END
>  <zinc_id>  (1) 
ZINC000001530951

>  <smiles>  (1) 
CCC[C@](C)(COC(N)=O)COC(=O)NC(C)C

$$$$
