
     RDKit          3D

 25 27  0  0  0  0  0  0  0  0999 V2000
    2.0879    1.3186   -1.5584 C   0  0  0  0  0  0  0  0  0  0  0  0
    1.9733    0.2133   -0.5932 C   0  0  0  0  0  0  0  0  0  0  0  0
    3.0802   -0.0575    0.1889 C   0  0  0  0  0  0  0  0  0  0  0  0
    4.2006    0.6855    0.0243 O   0  0  0  0  0  0  0  0  0  0  0  0
    5.4351    0.8274    0.4320 C   0  0  0  0  0  0  0  0  0  0  0  0
    6.3821   -0.2973    0.0408 C   0  0  0  0  0  0  0  0  0  0  0  0
    6.0062   -1.4971    0.5316 F   0  0  0  0  0  0  0  0  0  0  0  0
    7.6331    0.0830    0.4442 F   0  0  0  0  0  0  0  0  0  0  0  0
    6.3798   -0.3904   -1.3832 F   0  0  0  0  0  0  0  0  0  0  0  0
    2.9057   -1.0984    1.1165 C   0  0  0  0  0  0  0  0  0  0  0  0
    1.6976   -1.8010    1.2374 C   0  0  0  0  0  0  0  0  0  0  0  0
    0.6687   -1.4632    0.4303 N   0  0  0  0  0  0  0  0  0  0  0  0
    0.7587   -0.4869   -0.4765 C   0  0  0  0  0  0  0  0  0  0  0  0
   -0.2089   -0.2305   -1.5039 C   0  0  0  0  0  0  0  0  0  0  0  0
   -1.5925    0.5070   -1.4750 S   0  0  0  0  0  0  0  0  0  0  0  0
   -1.8835    1.3832   -2.6986 O   0  0  0  0  0  0  0  0  0  0  0  0
   -3.0484    0.2653   -0.6177 C   0  0  0  0  0  0  0  0  0  0  0  0
   -4.2358   -0.2843   -0.9449 N   0  0  0  0  0  0  0  0  0  0  0  0
   -5.1506   -0.1199    0.0329 C   0  0  0  0  0  0  0  0  0  0  0  0
   -6.4492   -0.4186    0.2220 C   0  0  0  0  0  0  0  0  0  0  0  0
   -7.1798   -0.0793    1.3685 C   0  0  0  0  0  0  0  0  0  0  0  0
   -6.5204    0.6210    2.3712 C   0  0  0  0  0  0  0  0  0  0  0  0
   -5.1678    0.9563    2.2209 C   0  0  0  0  0  0  0  0  0  0  0  0
   -4.5063    0.5682    1.0423 C   0  0  0  0  0  0  0  0  0  0  0  0
   -3.2659    0.7956    0.6636 N   0  0  0  0  0  0  0  0  0  0  0  0
  1  2  1  0
  2  3  2  0
  3  4  1  0
  4  5  1  0
  5  6  1  0
  6  7  1  0
  6  8  1  0
  6  9  1  0
  3 10  1  0
 10 11  2  0
 11 12  1  0
 12 13  2  0
 13 14  1  0
 15 14  1  6
 15 16  2  0
 15 17  1  0
 17 18  2  0
 18 19  1  0
 19 20  2  0
 20 21  1  0
 21 22  2  0
 22 23  1  0
 23 24  2  0
 24 25  1  0
 13  2  1  0
 25 17  1  0
 24 19  1  0
M  END
>  <zinc_id>  (1) 
ZINC000000599734

>  <smiles>  (1) 
Cc1c(OCC(F)(F)F)ccnc1C[S@@](=O)c1nc2ccccc2[nH]1

$$$$
