
     RDKit          3D

 12 12  0  0  0  0  0  0  0  0999 V2000
   -2.2548    2.1087    0.2087 C   0  0  0  0  0  0  0  0  0  0  0  0
   -0.9111    1.5420   -0.1704 C   0  0  0  0  0  0  0  0  0  0  0  0
   -0.0270    2.0465   -1.0388 N   0  0  0  0  0  0  0  0  0  0  0  0
    1.0546    1.2588   -1.1090 C   0  0  0  0  0  0  0  0  0  0  0  0
    0.8396    0.1901   -0.2287 C   0  0  0  0  0  0  0  0  0  0  0  0
    1.7652   -0.8700    0.0131 N   0  0  0  0  0  0  0  0  0  0  0  0
    1.5432   -1.7542    0.8171 O   0  0  0  0  0  0  0  0  0  0  0  0
    2.9585   -0.8329   -0.7058 O   0  0  0  0  0  0  0  0  0  0  0  0
   -0.3626    0.4087    0.3114 N   0  0  0  0  0  0  0  0  0  0  0  0
   -1.0418   -0.4141    1.3071 C   0  0  0  0  0  0  0  0  0  0  0  0
   -2.0182   -1.3783    0.7425 C   0  0  0  0  0  0  0  0  0  0  0  0
   -1.5456   -2.3052   -0.1473 O   0  0  0  0  0  0  0  0  0  0  0  0
  1  2  1  0
  2  3  2  0
  3  4  1  0
  4  5  2  0
  5  6  1  0
  6  7  2  0
  6  8  1  0
  5  9  1  0
  9 10  1  0
 10 11  1  0
 11 12  1  0
  9  2  1  0
M  CHG  2   6   1   8  -1
M  END
>  <zinc_id>  (1) 
ZINC000000113442

>  <smiles>  (1) 
Cc1ncc([N+](=O)[O-])n1CCO

$$$$
