
     RDKit          3D

 10  9  0  0  0  0  0  0  0  0999 V2000
    1.9574    0.9892   -0.9704 F   0  0  0  0  0  0  0  0  0  0  0  0
    1.9111    0.0852   -0.0538 C   0  0  0  0  0  0  0  0  0  0  0  0
    2.9875   -0.7271    0.0960 F   0  0  0  0  0  0  0  0  0  0  0  0
    0.7392   -0.5577    0.1537 O   0  0  0  0  0  0  0  0  0  0  0  0
   -0.2106    0.5490    0.5990 C   0  0  1  0  0  0  0  0  0  0  0  0
   -0.2150    1.3350   -0.7007 F   0  0  0  0  0  0  0  0  0  0  0  0
   -1.6196   -0.3066    0.2434 C   0  0  0  0  0  0  0  0  0  0  0  0
   -1.4294   -1.3700    1.0772 F   0  0  0  0  0  0  0  0  0  0  0  0
   -1.5572   -0.5786   -1.0788 F   0  0  0  0  0  0  0  0  0  0  0  0
   -2.5635    0.5816    0.6342 F   0  0  0  0  0  0  0  0  0  0  0  0
  1  2  1  0
  2  3  1  0
  2  4  1  0
  4  5  1  0
  5  6  1  6
  5  7  1  0
  7  8  1  0
  7  9  1  0
  7 10  1  0
M  END
>  <zinc_id>  (1) 
ZINC000003776875

>  <smiles>  (1) 
FC(F)O[C@@H](F)C(F)(F)F

$$$$
