
     RDKit          3D

  9  8  0  0  0  0  0  0  0  0999 V2000
   -0.0113    0.9738    1.2182 N   0  0  0  0  0  0  0  0  0  0  0  0
    0.4296   -0.4570    0.7230 C   0  0  1  0  0  0  0  0  0  0  0  0
   -0.3762   -0.3690   -0.7235 C   0  0  0  0  0  0  0  0  0  0  0  0
   -1.7761   -0.1905   -0.4264 C   0  0  0  0  0  0  0  0  0  0  0  0
   -2.4767   -1.1416   -0.0485 O   0  0  0  0  0  0  0  0  0  0  0  0
   -2.3899    1.0330   -0.5483 O   0  0  0  0  0  0  0  0  0  0  0  0
    1.8375    0.0078    0.1083 C   0  0  0  0  0  0  0  0  0  0  0  0
    2.1959    1.1708    0.1525 O   0  0  0  0  0  0  0  0  0  0  0  0
    2.5673   -1.0274   -0.4554 O   0  0  0  0  0  0  0  0  0  0  0  0
  2  1  1  1
  2  3  1  0
  3  4  1  0
  4  5  2  0
  4  6  1  0
  2  7  1  0
  7  8  2  0
  7  9  1  0
M  END
>  <zinc_id>  (1) 
ZINC000000895032

>  <smiles>  (1) 
N[C@@H](CC(=O)O)C(=O)O

$$$$
