
     RDKit          3D

  8  8  0  0  0  0  0  0  0  0999 V2000
    3.3658   -0.1196    0.8578 N   0  0  0  0  0  0  0  0  0  0  0  0
    2.1010   -0.5669    0.3016 C   0  0  0  0  0  0  0  0  0  0  0  0
    1.1032    0.5482    0.4953 C   0  0  0  0  0  0  0  0  0  0  0  0
   -0.2312    0.2097   -0.0340 C   0  0  0  0  0  0  0  0  0  0  0  0
   -0.6976   -0.9087   -0.6499 C   0  0  0  0  0  0  0  0  0  0  0  0
   -1.9958   -0.7173   -0.9405 N   0  0  0  0  0  0  0  0  0  0  0  0
   -2.3671    0.5029   -0.5215 C   0  0  0  0  0  0  0  0  0  0  0  0
   -1.2782    1.0518    0.0279 N   0  0  0  0  0  0  0  0  0  0  0  0
  1  2  1  0
  2  3  1  0
  3  4  1  0
  4  5  2  0
  5  6  1  0
  6  7  2  0
  7  8  1  0
  8  4  1  0
M  END
>  <zinc_id>  (1) 
ZINC000000388081

>  <smiles>  (1) 
NCCc1cnc[nH]1

$$$$
