
     RDKit          3D

 29 32  0  0  0  0  0  0  0  0999 V2000
   -0.7393    0.1763   -1.1088 O   0  0  0  0  0  0  0  0  0  0  0  0
   -1.4377   -0.9335   -0.3951 C   0  0  2  0  0  0  0  0  0  0  0  0
   -0.9243   -2.1146   -1.3845 C   0  0  0  0  0  0  0  0  0  0  0  0
    0.4801   -2.1852   -1.3749 N   0  0  0  0  0  0  0  0  0  0  0  0
    0.9064   -2.6464   -0.0935 C   0  0  0  0  0  0  0  0  0  0  0  0
    2.5244   -2.7070   -0.2352 C   0  0  2  0  0  0  0  0  0  0  0  0
    2.6807   -3.2033    1.1929 O   0  0  0  0  0  0  0  0  0  0  0  0
    2.6920   -1.0485    0.1933 C   0  0  2  0  0  0  0  0  0  0  0  0
    3.1039   -0.6333   -1.3052 C   0  0  0  0  0  0  0  0  0  0  0  0
    4.4566   -0.2148   -1.4822 C   0  0  0  0  0  0  0  0  0  0  0  0
    5.0610    0.5241   -0.3454 C   0  0  0  0  0  0  0  0  0  0  0  0
    5.7817    1.6704   -0.4496 C   0  0  0  0  0  0  0  0  0  0  0  0
    6.3033    2.2574    0.6851 C   0  0  0  0  0  0  0  0  0  0  0  0
    7.0138    3.3910    0.5648 F   0  0  0  0  0  0  0  0  0  0  0  0
    6.0658    1.6427    1.9003 C   0  0  0  0  0  0  0  0  0  0  0  0
    5.3303    0.4705    2.0206 C   0  0  0  0  0  0  0  0  0  0  0  0
    4.8233   -0.0903    0.8695 C   0  0  0  0  0  0  0  0  0  0  0  0
    4.0741   -1.2426    0.7670 O   0  0  0  0  0  0  0  0  0  0  0  0
   -2.9431   -0.8507   -1.2138 C   0  0  1  0  0  0  0  0  0  0  0  0
   -3.7108   -1.5847    0.0492 C   0  0  0  0  0  0  0  0  0  0  0  0
   -5.1650   -1.4272   -0.2325 C   0  0  0  0  0  0  0  0  0  0  0  0
   -5.4874    0.0098   -0.0801 C   0  0  0  0  0  0  0  0  0  0  0  0
   -6.7453    0.4185    0.3911 C   0  0  0  0  0  0  0  0  0  0  0  0
   -7.0678    1.7511    0.5381 C   0  0  0  0  0  0  0  0  0  0  0  0
   -8.2746    2.1770    0.9904 F   0  0  0  0  0  0  0  0  0  0  0  0
   -6.0893    2.6647    0.1978 C   0  0  0  0  0  0  0  0  0  0  0  0
   -4.8531    2.2558   -0.2656 C   0  0  0  0  0  0  0  0  0  0  0  0
   -4.5274    0.9213   -0.4139 C   0  0  0  0  0  0  0  0  0  0  0  0
   -3.3323    0.5518   -0.8618 O   0  0  0  0  0  0  0  0  0  0  0  0
  2  1  1  6
  2  3  1  0
  3  4  1  0
  4  5  1  0
  5  6  1  0
  6  7  1  1
  6  8  1  0
  8  9  1  6
  9 10  1  0
 10 11  1  0
 11 12  2  0
 12 13  1  0
 13 14  1  0
 13 15  2  0
 15 16  1  0
 16 17  2  0
 17 18  1  0
  2 19  1  0
 19 20  1  1
 20 21  1  0
 21 22  1  0
 22 23  2  0
 23 24  1  0
 24 25  1  0
 24 26  2  0
 26 27  1  0
 27 28  2  0
 28 29  1  0
 18  8  1  0
 29 19  1  0
 17 11  1  0
 28 22  1  0
M  END
>  <zinc_id>  (1) 
ZINC000005844788

>  <smiles>  (1) 
O[C@@H](CNC[C@@H](O)[C@H]1CCc2cc(F)ccc2O1)[C@@H]1CCc2cc(F)ccc2O1

$$$$
