
     RDKit          3D

 26 28  0  0  0  0  0  0  0  0999 V2000
    1.7384    2.4557   -1.9622 O   0  0  0  0  0  0  0  0  0  0  0  0
    1.9104    0.8603   -1.9185 C   0  0  2  0  0  0  0  0  0  0  0  0
    0.7205    0.6913   -0.8817 C   0  0  0  0  0  0  0  0  0  0  0  0
    0.3593    1.4912    0.0812 C   0  0  0  0  0  0  0  0  0  0  0  0
   -0.8063    1.2836    0.8100 C   0  0  0  0  0  0  0  0  0  0  0  0
   -1.1577    2.2519    1.8828 C   0  0  0  0  0  0  0  0  0  0  0  0
   -2.4886    2.1894    2.2557 F   0  0  0  0  0  0  0  0  0  0  0  0
   -0.4248    2.0011    3.0605 F   0  0  0  0  0  0  0  0  0  0  0  0
   -0.8443    3.5458    1.5177 F   0  0  0  0  0  0  0  0  0  0  0  0
   -1.5728    0.2222    0.5100 N   0  0  0  0  0  0  0  0  0  0  0  0
   -1.1804   -0.6200   -0.4904 C   0  0  0  0  0  0  0  0  0  0  0  0
   -0.0481   -0.4346   -1.2247 C   0  0  0  0  0  0  0  0  0  0  0  0
    0.3040   -1.3685   -2.1578 C   0  0  0  0  0  0  0  0  0  0  0  0
   -0.4589   -2.4937   -2.3624 C   0  0  0  0  0  0  0  0  0  0  0  0
   -1.6060   -2.6902   -1.6177 C   0  0  0  0  0  0  0  0  0  0  0  0
   -1.9694   -1.7638   -0.6847 C   0  0  0  0  0  0  0  0  0  0  0  0
   -3.1607   -1.9646    0.1686 C   0  0  0  0  0  0  0  0  0  0  0  0
   -2.8329   -1.8690    1.5148 F   0  0  0  0  0  0  0  0  0  0  0  0
   -4.2570   -1.2118   -0.1425 F   0  0  0  0  0  0  0  0  0  0  0  0
   -3.5021   -3.3246   -0.0177 F   0  0  0  0  0  0  0  0  0  0  0  0
    3.2867    1.0394   -0.8867 C   0  0  1  0  0  0  0  0  0  0  0  0
    2.5978    0.9044    0.5398 C   0  0  0  0  0  0  0  0  0  0  0  0
    3.7783    0.9334    1.4790 C   0  0  0  0  0  0  0  0  0  0  0  0
    4.3787   -0.4842    1.3275 C   0  0  0  0  0  0  0  0  0  0  0  0
    3.5703   -1.1221    0.2289 C   0  0  0  0  0  0  0  0  0  0  0  0
    3.6654   -0.5225   -1.0295 N   0  0  0  0  0  0  0  0  0  0  0  0
  2  1  1  1
  2  3  1  0
  3  4  2  0
  4  5  1  0
  5  6  1  0
  6  7  1  0
  6  8  1  0
  6  9  1  0
  5 10  2  0
 10 11  1  0
 11 12  2  0
 12 13  1  0
 13 14  2  0
 14 15  1  0
 15 16  2  0
 16 17  1  0
 17 18  1  0
 17 19  1  0
 17 20  1  0
  2 21  1  0
 21 22  1  1
 22 23  1  0
 23 24  1  0
 24 25  1  0
 25 26  1  0
 12  3  1  0
 26 21  1  0
 16 11  1  0
M  END
>  <zinc_id>  (1) 
ZINC000000537964

>  <smiles>  (1) 
O[C@H](c1cc(C(F)(F)F)nc2c(C(F)(F)F)cccc12)[C@H]1CCCCN1

$$$$
