
     RDKit          3D

 25 28  0  0  0  0  0  0  0  0999 V2000
    2.6123    1.3174    1.0010 Cl  0  0  0  0  0  0  0  0  0  0  0  0
    2.4542    0.2024   -0.3288 C   0  0  0  0  0  0  0  0  0  0  0  0
    3.5691   -0.1401   -1.1112 C   0  0  0  0  0  0  0  0  0  0  0  0
    3.4995   -1.0048   -2.1604 C   0  0  0  0  0  0  0  0  0  0  0  0
    2.2713   -1.5659   -2.4613 C   0  0  0  0  0  0  0  0  0  0  0  0
    1.1815   -1.2374   -1.7045 C   0  0  0  0  0  0  0  0  0  0  0  0
    1.2341   -0.3493   -0.6207 C   0  0  0  0  0  0  0  0  0  0  0  0
    0.0353   -0.0279    0.1657 C   0  0  0  0  0  0  0  0  0  0  0  0
   -0.3474    1.3855    0.1844 C   0  0  0  0  0  0  0  0  0  0  0  0
   -0.5339    2.0943   -0.9802 C   0  0  0  0  0  0  0  0  0  0  0  0
   -0.9026    3.4111   -1.0031 C   0  0  0  0  0  0  0  0  0  0  0  0
   -1.0965    4.0592    0.1911 C   0  0  0  0  0  0  0  0  0  0  0  0
   -0.9209    3.3885    1.3739 C   0  0  0  0  0  0  0  0  0  0  0  0
   -0.5512    2.0696    1.3563 C   0  0  0  0  0  0  0  0  0  0  0  0
   -1.1066   -0.7714   -0.5000 C   0  0  0  0  0  0  0  0  0  0  0  0
   -1.4803   -0.4111   -1.7665 C   0  0  0  0  0  0  0  0  0  0  0  0
   -2.5098   -1.0717   -2.3838 C   0  0  0  0  0  0  0  0  0  0  0  0
   -3.2012   -2.0998   -1.7833 C   0  0  0  0  0  0  0  0  0  0  0  0
   -2.8003   -2.4376   -0.5093 C   0  0  0  0  0  0  0  0  0  0  0  0
   -1.7707   -1.7873    0.1260 C   0  0  0  0  0  0  0  0  0  0  0  0
    0.1074   -0.5980    1.5078 N   0  0  0  0  0  0  0  0  0  0  0  0
    1.0368   -1.3879    2.0583 C   0  0  0  0  0  0  0  0  0  0  0  0
    0.6170   -1.6424    3.3454 C   0  0  0  0  0  0  0  0  0  0  0  0
   -0.5562   -1.0104    3.5676 N   0  0  0  0  0  0  0  0  0  0  0  0
   -0.8409   -0.3849    2.4355 C   0  0  0  0  0  0  0  0  0  0  0  0
  1  2  1  0
  2  3  2  0
  3  4  1  0
  4  5  2  0
  5  6  1  0
  6  7  2  0
  7  8  1  0
  8  9  1  0
  9 10  2  0
 10 11  1  0
 11 12  2  0
 12 13  1  0
 13 14  2  0
  8 15  1  0
 15 16  2  0
 16 17  1  0
 17 18  2  0
 18 19  1  0
 19 20  2  0
  8 21  1  0
 21 22  1  0
 22 23  2  0
 23 24  1  0
 24 25  2  0
  7  2  1  0
 14  9  1  0
 20 15  1  0
 25 21  1  0
M  END
>  <zinc_id>  (1) 
ZINC000003807804

>  <smiles>  (1) 
Clc1ccccc1C(c1ccccc1)(c1ccccc1)n1ccnc1

$$$$
