
     RDKit          3D

 19 19  0  0  0  0  0  0  0  0999 V2000
    6.2671   -0.6780    1.1578 O   0  0  0  0  0  0  0  0  0  0  0  0
    5.5914   -0.8345    0.1228 C   0  0  0  0  0  0  0  0  0  0  0  0
    4.1521   -0.4813    0.1234 C   0  0  0  0  0  0  0  0  0  0  0  0
    3.7194    0.0461    1.4765 C   0  0  0  0  0  0  0  0  0  0  0  0
    2.2536    0.3756    1.3802 C   0  0  0  0  0  0  0  0  0  0  0  0
    2.0297    1.4318    0.3019 C   0  0  0  0  0  0  0  0  0  0  0  0
    0.5173    1.6909    0.2881 C   0  0  0  0  0  0  0  0  0  0  0  0
   -0.1255    0.3576   -0.0450 C   0  0  0  0  0  0  0  0  0  0  0  0
   -1.6104    0.5607   -0.0702 C   0  0  0  0  0  0  0  0  0  0  0  0
   -2.1239    1.6922    0.1616 O   0  0  0  0  0  0  0  0  0  0  0  0
   -2.5086   -0.5011   -0.3540 N   0  0  0  0  0  0  0  0  0  0  0  0
   -3.9230   -0.3145   -0.3796 C   0  0  0  0  0  0  0  0  0  0  0  0
   -4.4497    0.9313   -0.1225 C   0  0  0  0  0  0  0  0  0  0  0  0
   -5.8095    1.1802   -0.1314 C   0  0  0  0  0  0  0  0  0  0  0  0
   -6.6808    0.1446   -0.4079 C   0  0  0  0  0  0  0  0  0  0  0  0
   -6.1736   -1.1138   -0.6688 C   0  0  0  0  0  0  0  0  0  0  0  0
   -4.7937   -1.3455   -0.6551 C   0  0  0  0  0  0  0  0  0  0  0  0
    6.1795   -1.3440   -1.0504 N   0  0  0  0  0  0  0  0  0  0  0  0
    7.4885   -1.6890   -1.1274 O   0  0  0  0  0  0  0  0  0  0  0  0
  1  2  2  0
  2  3  1  0
  3  4  1  0
  4  5  1  0
  5  6  1  0
  6  7  1  0
  7  8  1  0
  8  9  1  0
  9 10  2  0
  9 11  1  0
 11 12  1  0
 12 13  2  0
 13 14  1  0
 14 15  2  0
 15 16  1  0
 16 17  2  0
  2 18  1  0
 18 19  1  0
 17 12  1  0
M  END
>  <zinc_id>  (1) 
ZINC000001543873

>  <smiles>  (1) 
O=C(CCCCCCC(=O)Nc1ccccc1)NO

$$$$
