
     RDKit          3D

 26 26  0  0  0  0  0  0  0  0999 V2000
    8.7591    0.4145   -0.9840 C   0  0  0  0  0  0  0  0  0  0  0  0
    8.0238   -0.1963    0.0936 C   0  0  0  0  0  0  0  0  0  0  0  0
    6.9909   -1.1543   -0.4674 C   0  0  0  0  0  0  0  0  0  0  0  0
    6.0608   -0.3621   -1.3473 C   0  0  0  0  0  0  0  0  0  0  0  0
    4.9840   -1.1962   -1.9649 C   0  0  0  0  0  0  0  0  0  0  0  0
    4.1095   -1.8672   -0.9924 C   0  0  0  0  0  0  0  0  0  0  0  0
    3.3261   -0.9861   -0.1298 C   0  0  0  0  0  0  0  0  0  0  0  0
    2.3761   -0.1229   -0.6811 N   0  0  0  0  0  0  0  0  0  0  0  0
    2.7246    1.0041   -1.4301 C   0  0  0  0  0  0  0  0  0  0  0  0
    3.3238    2.0560   -0.5060 C   0  0  0  0  0  0  0  0  0  0  0  0
    1.0441   -0.6054   -0.7648 C   0  0  0  0  0  0  0  0  0  0  0  0
    0.1646    0.4482   -1.3787 C   0  0  0  0  0  0  0  0  0  0  0  0
    0.0521    1.7249   -0.7140 C   0  0  0  0  0  0  0  0  0  0  0  0
   -0.6092    1.6751    0.7451 C   0  0  2  0  0  0  0  0  0  0  0  0
    0.3372    0.6981    1.3817 O   0  0  0  0  0  0  0  0  0  0  0  0
   -1.8740    0.8117    0.5207 C   0  0  0  0  0  0  0  0  0  0  0  0
   -1.9215   -0.4473    0.0887 C   0  0  0  0  0  0  0  0  0  0  0  0
   -3.1263   -1.0917   -0.0543 C   0  0  0  0  0  0  0  0  0  0  0  0
   -4.3021   -0.4503    0.2452 C   0  0  0  0  0  0  0  0  0  0  0  0
   -5.5198   -1.1573    0.0913 N   0  0  0  0  0  0  0  0  0  0  0  0
   -6.6521   -1.0143    1.4006 S   0  0  0  0  0  0  0  0  0  0  0  0
   -7.0977    0.6850    1.5482 C   0  0  0  0  0  0  0  0  0  0  0  0
   -5.9928   -1.4452    2.6902 O   0  0  0  0  0  0  0  0  0  0  0  0
   -7.8728   -1.7996    1.0907 O   0  0  0  0  0  0  0  0  0  0  0  0
   -4.2638    0.8494    0.6911 C   0  0  0  0  0  0  0  0  0  0  0  0
   -3.0447    1.4769    0.8277 C   0  0  0  0  0  0  0  0  0  0  0  0
  1  2  1  0
  2  3  1  0
  3  4  1  0
  4  5  1  0
  5  6  1  0
  6  7  1  0
  7  8  1  0
  8  9  1  0
  9 10  1  0
  8 11  1  0
 11 12  1  0
 12 13  1  0
 13 14  1  0
 14 15  1  1
 14 16  1  0
 16 17  2  0
 17 18  1  0
 18 19  2  0
 19 20  1  0
 20 21  1  0
 21 22  1  0
 21 23  2  0
 21 24  2  0
 19 25  1  0
 25 26  2  0
 26 16  1  0
M  END
>  <zinc_id>  (1) 
ZINC000008220878

>  <smiles>  (1) 
CCCCCCCN(CC)CCC[C@H](O)c1ccc(NS(C)(=O)=O)cc1

$$$$
