
     RDKit          3D

 17 18  0  0  0  0  0  0  0  0999 V2000
   -5.3254    0.7255    1.3154 C   0  0  0  0  0  0  0  0  0  0  0  0
   -4.5703    0.4935    0.1333 O   0  0  0  0  0  0  0  0  0  0  0  0
   -3.1956    0.2089    0.2559 C   0  0  0  0  0  0  0  0  0  0  0  0
   -2.5538    0.1471    1.4618 C   0  0  0  0  0  0  0  0  0  0  0  0
   -1.1903   -0.1375    1.5425 C   0  0  0  0  0  0  0  0  0  0  0  0
   -0.4312   -0.3685    0.4219 C   0  0  0  0  0  0  0  0  0  0  0  0
    0.9219   -0.6507    0.4509 C   0  0  0  0  0  0  0  0  0  0  0  0
    1.6990   -0.8821   -0.6541 C   0  0  0  0  0  0  0  0  0  0  0  0
    3.1399   -1.1994   -0.6259 C   0  0  0  0  0  0  0  0  0  0  0  0
    3.9378    0.0744   -0.6687 C   0  0  0  0  0  0  0  0  0  0  0  0
    3.5454    0.8801    0.5245 C   0  0  0  0  0  0  0  0  0  0  0  0
    3.9295    0.5172    1.9178 C   0  0  0  0  0  0  0  0  0  0  0  0
    2.8812    1.8782    0.3358 O   0  0  0  0  0  0  0  0  0  0  0  0
    1.0398   -0.8185   -1.9032 C   0  0  0  0  0  0  0  0  0  0  0  0
   -0.3081   -0.5369   -1.9087 C   0  0  0  0  0  0  0  0  0  0  0  0
   -1.0797   -0.3081   -0.8026 C   0  0  0  0  0  0  0  0  0  0  0  0
   -2.4400   -0.0233   -0.8852 C   0  0  0  0  0  0  0  0  0  0  0  0
  1  2  1  0
  2  3  1  0
  3  4  2  0
  4  5  1  0
  5  6  2  0
  6  7  1  0
  7  8  2  0
  8  9  1  0
  9 10  1  0
 10 11  1  0
 11 12  1  0
 11 13  2  0
  8 14  1  0
 14 15  2  0
 15 16  1  0
 16 17  2  0
 17  3  1  0
 16  6  1  0
M  END
>  <zinc_id>  (1) 
ZINC000000020221

>  <smiles>  (1) 
COc1ccc2cc(CCC(C)=O)ccc2c1

$$$$
