
     RDKit          3D

 16 16  0  0  0  0  0  0  0  0999 V2000
    1.2047    3.1598   -0.7050 C   0  0  0  0  0  0  0  0  0  0  0  0
    0.3534    2.3094   -0.2391 C   0  0  0  0  0  0  0  0  0  0  0  0
   -0.1041    1.0426   -0.8148 C   0  0  0  0  0  0  0  0  0  0  0  0
    0.1520   -0.0659    0.1487 C   0  0  0  0  0  0  0  0  0  0  0  0
    1.5424   -0.3502    0.5307 C   0  0  0  0  0  0  0  0  0  0  0  0
    2.4780   -0.7800   -0.4856 C   0  0  0  0  0  0  0  0  0  0  0  0
    3.8588   -1.0246   -0.0147 C   0  0  0  0  0  0  0  0  0  0  0  0
    2.4036   -0.2265   -1.8274 C   0  0  0  0  0  0  0  0  0  0  0  0
   -0.5402   -1.2823   -0.4278 C   0  0  0  0  0  0  0  0  0  0  0  0
    0.1408   -2.2943   -0.6476 O   0  0  0  0  0  0  0  0  0  0  0  0
   -1.9313   -1.1318   -0.6616 N   0  0  0  0  0  0  0  0  0  0  0  0
   -2.7324   -0.2691    0.1365 C   0  0  0  0  0  0  0  0  0  0  0  0
   -3.9584   -0.0978   -0.0231 O   0  0  0  0  0  0  0  0  0  0  0  0
   -2.0754    0.4371    1.1812 N   0  0  0  0  0  0  0  0  0  0  0  0
   -0.6793    0.2475    1.3697 C   0  0  0  0  0  0  0  0  0  0  0  0
   -0.1126    0.3261    2.4799 O   0  0  0  0  0  0  0  0  0  0  0  0
  1  2  2  0
  2  3  1  0
  3  4  1  0
  4  5  1  0
  5  6  1  0
  6  7  1  0
  6  8  1  0
  4  9  1  0
  9 10  2  0
  9 11  1  0
 11 12  1  0
 12 13  2  0
 12 14  1  0
 14 15  1  0
 15 16  2  0
 15  4  1  0
M  END
>  <zinc_id>  (1) 
ZINC000003830347

>  <smiles>  (1) 
C=CCC1(CC(C)C)C(=O)NC(=O)NC1=O

$$$$
