
     RDKit          3D

 23 25  0  0  0  0  0  0  0  0999 V2000
   -3.1518    2.1509    0.9302 C   0  0  0  0  0  0  0  0  0  0  0  0
   -3.2555    1.0805    1.0537 C   0  0  0  0  0  0  0  0  0  0  0  0
   -4.6730    0.9298    1.6273 C   0  0  0  0  0  0  0  0  0  0  0  0
   -2.1940    0.1142    2.0128 S   0  0  0  0  0  0  0  0  0  0  0  0
   -2.1130   -1.2856    0.7718 C   0  0  2  0  0  0  0  0  0  0  0  0
   -0.5157   -1.5263    0.4185 C   0  0  2  0  0  0  0  0  0  0  0  0
    0.1678   -0.2389    1.0052 N   0  0  0  0  0  0  0  0  0  0  0  0
    1.5209   -0.2088    0.5695 C   0  0  0  0  0  0  0  0  0  0  0  0
    2.0475   -1.0899   -0.1650 O   0  0  0  0  0  0  0  0  0  0  0  0
    2.4345    0.9165    0.9744 C   0  0  0  0  0  0  0  0  0  0  0  0
    3.7919    0.7418    0.4081 C   0  0  0  0  0  0  0  0  0  0  0  0
    4.7767    0.0669    1.1035 C   0  0  0  0  0  0  0  0  0  0  0  0
    6.0506   -0.1198    0.6165 C   0  0  0  0  0  0  0  0  0  0  0  0
    6.3355    0.3978   -0.6227 C   0  0  0  0  0  0  0  0  0  0  0  0
    5.3890    1.0754   -1.3499 C   0  0  0  0  0  0  0  0  0  0  0  0
    4.1271    1.2445   -0.8351 C   0  0  0  0  0  0  0  0  0  0  0  0
   -0.8544   -0.8484   -0.9887 C   0  0  0  0  0  0  0  0  0  0  0  0
   -0.1587   -0.8469   -2.0180 O   0  0  0  0  0  0  0  0  0  0  0  0
   -2.0563   -0.4256   -0.4074 N   0  0  0  0  0  0  0  0  0  0  0  0
   -3.3029    0.4841   -0.4593 C   0  0  1  0  0  0  0  0  0  0  0  0
   -4.4698   -0.5509   -0.3747 C   0  0  0  0  0  0  0  0  0  0  0  0
   -5.6440   -0.1785   -0.3921 O   0  0  0  0  0  0  0  0  0  0  0  0
   -4.2525   -1.8829   -0.2812 O   0  0  0  0  0  0  0  0  0  0  0  0
  1  2  1  0
  2  3  1  0
  2  4  1  0
  5  4  1  1
  5  6  1  0
  6  7  1  1
  7  8  1  0
  8  9  2  0
  8 10  1  0
 10 11  1  0
 11 12  2  0
 12 13  1  0
 13 14  2  0
 14 15  1  0
 15 16  2  0
  6 17  1  0
 17 18  2  0
 17 19  1  0
 19 20  1  0
 20 21  1  1
 21 22  2  0
 21 23  1  0
 20  2  1  0
 19  5  1  0
 16 11  1  0
M  END
>  <zinc_id>  (1) 
ZINC000003871701

>  <smiles>  (1) 
CC1(C)S[C@@H]2[C@H](NC(=O)Cc3ccccc3)C(=O)N2[C@H]1C(=O)O

$$$$
