
     RDKit          3D

 10  9  0  0  0  0  0  0  0  0999 V2000
    2.1391   -0.1572   -0.6540 F   0  0  0  0  0  0  0  0  0  0  0  0
    1.8517   -0.2966    0.1429 C   0  0  0  0  0  0  0  0  0  0  0  0
    2.6359   -1.1323    0.9121 F   0  0  0  0  0  0  0  0  0  0  0  0
    0.5328   -0.7604    0.2106 O   0  0  0  0  0  0  0  0  0  0  0  0
   -0.1565    0.4443   -0.4842 C   0  0  2  0  0  0  0  0  0  0  0  0
    0.3314    1.4537    0.5615 F   0  0  0  0  0  0  0  0  0  0  0  0
   -1.6348    0.1725    0.2681 C   0  0  0  0  0  0  0  0  0  0  0  0
   -1.8712   -1.0909   -0.2164 F   0  0  0  0  0  0  0  0  0  0  0  0
   -1.4019    0.2292    1.5923 F   0  0  0  0  0  0  0  0  0  0  0  0
   -2.4264    1.1376   -0.2523 F   0  0  0  0  0  0  0  0  0  0  0  0
  1  2  1  0
  2  3  1  0
  2  4  1  0
  4  5  1  0
  5  6  1  1
  5  7  1  0
  7  8  1  0
  7  9  1  0
  7 10  1  0
M  END
>  <zinc_id>  (1) 
ZINC000004097392

>  <smiles>  (1) 
FC(F)O[C@H](F)C(F)(F)F

$$$$
