
     RDKit          3D

 33 37  0  0  0  0  0  0  0  0999 V2000
   -2.9457   -5.0436    0.5589 C   0  0  0  0  0  0  0  0  0  0  0  0
   -1.6088   -4.3403    0.6434 C   0  0  0  0  0  0  0  0  0  0  0  0
   -1.7332   -2.9885    1.0104 O   0  0  0  0  0  0  0  0  0  0  0  0
   -2.4458   -2.0655    0.2732 C   0  0  0  0  0  0  0  0  0  0  0  0
   -3.1068   -2.2652   -0.8502 N   0  0  0  0  0  0  0  0  0  0  0  0
   -3.6564   -1.1144   -1.2325 C   0  0  0  0  0  0  0  0  0  0  0  0
   -4.4282   -0.8134   -2.3338 C   0  0  0  0  0  0  0  0  0  0  0  0
   -4.8980    0.4589   -2.5447 C   0  0  0  0  0  0  0  0  0  0  0  0
   -4.5830    1.4230   -1.6320 C   0  0  0  0  0  0  0  0  0  0  0  0
   -3.8013    1.1010   -0.5220 C   0  0  0  0  0  0  0  0  0  0  0  0
   -3.6641    2.1839    0.4312 C   0  0  0  0  0  0  0  0  0  0  0  0
   -3.5523    2.1117    1.6561 O   0  0  0  0  0  0  0  0  0  0  0  0
   -3.6481    3.5315   -0.0468 O   0  0  0  0  0  0  0  0  0  0  0  0
   -3.3045   -0.1576   -0.2738 C   0  0  0  0  0  0  0  0  0  0  0  0
   -2.5541   -0.7621    0.6460 N   0  0  0  0  0  0  0  0  0  0  0  0
   -1.9647   -0.1751    1.7955 C   0  0  0  0  0  0  0  0  0  0  0  0
   -0.5377    0.1951    1.6264 C   0  0  0  0  0  0  0  0  0  0  0  0
    0.4336   -0.7758    1.9251 C   0  0  0  0  0  0  0  0  0  0  0  0
    1.7786   -0.5081    1.7967 C   0  0  0  0  0  0  0  0  0  0  0  0
    2.2605    0.7167    1.3711 C   0  0  0  0  0  0  0  0  0  0  0  0
    3.6840    0.9829    1.2588 C   0  0  0  0  0  0  0  0  0  0  0  0
    4.3702    1.5222    2.3655 C   0  0  0  0  0  0  0  0  0  0  0  0
    5.7080    1.7746    2.2885 C   0  0  0  0  0  0  0  0  0  0  0  0
    6.4414    1.5167    1.1380 C   0  0  0  0  0  0  0  0  0  0  0  0
    5.7543    0.9936    0.0768 C   0  0  0  0  0  0  0  0  0  0  0  0
    4.3690    0.7179    0.1161 C   0  0  0  0  0  0  0  0  0  0  0  0
    3.7096    0.1752   -1.0391 C   0  0  0  0  0  0  0  0  0  0  0  0
    2.4483   -0.1459   -1.2573 N   0  0  0  0  0  0  0  0  0  0  0  0
    2.3314   -0.6046   -2.4799 N   0  0  0  0  0  0  0  0  0  0  0  0
    3.5132   -0.5943   -3.0897 N   0  0  0  0  0  0  0  0  0  0  0  0
    4.3700   -0.1120   -2.2011 N   0  0  0  0  0  0  0  0  0  0  0  0
    1.3019    1.6696    1.0780 C   0  0  0  0  0  0  0  0  0  0  0  0
   -0.0415    1.3920    1.2097 C   0  0  0  0  0  0  0  0  0  0  0  0
  1  2  1  0
  2  3  1  0
  3  4  1  0
  4  5  2  0
  5  6  1  0
  6  7  2  0
  7  8  1  0
  8  9  2  0
  9 10  1  0
 10 11  1  0
 11 12  2  0
 11 13  1  0
 10 14  2  0
 14 15  1  0
 15 16  1  0
 16 17  1  0
 17 18  2  0
 18 19  1  0
 19 20  2  0
 20 21  1  0
 21 22  2  0
 22 23  1  0
 23 24  2  0
 24 25  1  0
 25 26  2  0
 26 27  1  0
 27 28  2  0
 28 29  1  0
 29 30  2  0
 30 31  1  0
 20 32  1  0
 32 33  2  0
 15  4  1  0
 33 17  1  0
 14  6  1  0
 26 21  1  0
 31 27  1  0
M  END
>  <zinc_id>  (1) 
ZINC000003782818

>  <smiles>  (1) 
CCOc1nc2cccc(C(=O)O)c2n1Cc1ccc(-c2ccccc2-c2nnn[nH]2)cc1

$$$$
