
     RDKit          3D

 29 31  0  0  0  0  0  0  0  0999 V2000
    3.9625   -0.2859    1.7932 C   0  0  0  0  0  0  0  0  0  0  0  0
    4.9940   -0.4351    1.0179 C   0  0  0  0  0  0  0  0  0  0  0  0
    6.3716   -0.5975    1.5695 C   0  0  0  0  0  0  0  0  0  0  0  0
    7.4048   -0.8478    0.6015 C   0  0  0  0  0  0  0  0  0  0  0  0
    7.3297    0.1411   -0.6916 C   0  0  2  0  0  0  0  0  0  0  0  0
    6.5906    1.2690   -0.0216 O   0  0  0  0  0  0  0  0  0  0  0  0
    6.0103   -0.5714   -1.3355 C   0  0  0  0  0  0  0  0  0  0  0  0
    4.8840   -0.4543   -0.4168 C   0  0  0  0  0  0  0  0  0  0  0  0
    3.6852   -0.3599   -0.9385 C   0  0  0  0  0  0  0  0  0  0  0  0
    2.4611   -0.2369   -0.1553 C   0  0  0  0  0  0  0  0  0  0  0  0
    1.2619   -0.1421   -0.6607 C   0  0  0  0  0  0  0  0  0  0  0  0
    1.1848   -0.1645   -2.1069 C   0  0  0  0  0  0  0  0  0  0  0  0
    0.2356    0.9328   -2.5405 C   0  0  0  0  0  0  0  0  0  0  0  0
   -0.8984    1.1565   -1.5660 C   0  0  0  0  0  0  0  0  0  0  0  0
   -1.1219   -0.0994   -0.8948 C   0  0  1  0  0  0  0  0  0  0  0  0
   -1.2013   -1.3632   -1.5122 C   0  0  0  0  0  0  0  0  0  0  0  0
    0.0174   -0.0139    0.2922 C   0  0  1  0  0  0  0  0  0  0  0  0
   -0.2861   -1.5597    0.6613 C   0  0  0  0  0  0  0  0  0  0  0  0
   -1.7772   -1.4632    0.8905 C   0  0  0  0  0  0  0  0  0  0  0  0
   -2.2087   -0.0474    0.2599 C   0  0  2  0  0  0  0  0  0  0  0  0
   -3.4718   -0.7121   -0.6338 C   0  0  2  0  0  0  0  0  0  0  0  0
   -3.4900    0.4329   -1.7618 C   0  0  0  0  0  0  0  0  0  0  0  0
   -4.6287   -0.0668    0.2066 C   0  0  0  0  0  0  0  0  0  0  0  0
   -4.5145    0.2988    1.3825 C   0  0  0  0  0  0  0  0  0  0  0  0
   -5.5680    0.9469    2.3312 C   0  0  2  0  0  0  0  0  0  0  0  0
   -6.0358   -0.4363    3.0545 C   0  0  0  0  0  0  0  0  0  0  0  0
   -6.8435    1.0067    1.3475 C   0  0  0  0  0  0  0  0  0  0  0  0
   -6.4887    1.8751    0.1643 C   0  0  0  0  0  0  0  0  0  0  0  0
   -7.8588    1.7974    2.1582 C   0  0  0  0  0  0  0  0  0  0  0  0
  1  2  2  0
  2  3  1  0
  3  4  1  0
  4  5  1  0
  5  6  1  1
  5  7  1  0
  7  8  1  0
  8  9  2  0
  9 10  1  0
 10 11  2  0
 11 12  1  0
 12 13  1  0
 13 14  1  0
 14 15  1  0
 15 16  1  6
 15 17  1  0
 17 18  1  1
 18 19  1  0
 20 19  1  1
 20 21  1  0
 21 22  1  6
 21 23  1  0
 23 24  2  0
 24 25  1  0
 25 26  1  1
 25 27  1  0
 27 28  1  0
 27 29  1  0
  8  2  1  0
 17 11  1  0
 20 15  1  0
M  END
>  <zinc_id>  (1) 
ZINC000004629876

>  <smiles>  (1) 
C=C1CC[C@H](O)C/C1=C/C=C1\CCC[C@@]2(C)[C@H]1CC[C@@H]2[C@H](C)/C=C/[C@H](C)C(C)C

$$$$
