
     RDKit          3D

 14 14  0  0  0  0  0  0  0  0999 V2000
    3.3515   -1.6486   -0.3558 N   0  0  0  0  0  0  0  0  0  0  0  0
    2.0649   -0.8419   -0.8362 C   0  0  1  0  0  0  0  0  0  0  0  0
    1.2973   -1.1255    0.5690 C   0  0  0  0  0  0  0  0  0  0  0  0
   -0.0336   -0.5046    0.4935 C   0  0  0  0  0  0  0  0  0  0  0  0
   -0.2568    0.7531    0.9559 C   0  0  0  0  0  0  0  0  0  0  0  0
   -1.4875    1.3855    0.9100 C   0  0  0  0  0  0  0  0  0  0  0  0
   -2.5316    0.7085    0.3714 C   0  0  0  0  0  0  0  0  0  0  0  0
   -3.7687    1.2852    0.3010 O   0  0  0  0  0  0  0  0  0  0  0  0
   -2.3399   -0.5678   -0.1065 C   0  0  0  0  0  0  0  0  0  0  0  0
   -3.4345   -1.2280   -0.6508 O   0  0  0  0  0  0  0  0  0  0  0  0
   -1.1260   -1.1879   -0.0598 C   0  0  0  0  0  0  0  0  0  0  0  0
    2.6139    0.5902   -0.4302 C   0  0  0  0  0  0  0  0  0  0  0  0
    1.9691    1.5741   -0.8826 O   0  0  0  0  0  0  0  0  0  0  0  0
    3.6817    0.8078    0.3363 O   0  0  0  0  0  0  0  0  0  0  0  0
  2  1  1  1
  2  3  1  0
  3  4  1  0
  4  5  2  0
  5  6  1  0
  6  7  2  0
  7  8  1  0
  7  9  1  0
  9 10  1  0
  9 11  2  0
  2 12  1  0
 12 13  2  0
 12 14  1  0
 11  4  1  0
M  END
>  <zinc_id>  (1) 
ZINC000000895199

>  <smiles>  (1) 
N[C@@H](Cc1ccc(O)c(O)c1)C(=O)O

$$$$
