
     RDKit          3D

 26 28  0  0  0  0  0  0  0  0999 V2000
    1.8594    1.8357    1.3201 O   0  0  0  0  0  0  0  0  0  0  0  0
    2.2274    0.8972    0.1483 C   0  0  2  0  0  0  0  0  0  0  0  0
    0.7900    0.2228    0.2013 C   0  0  0  0  0  0  0  0  0  0  0  0
    0.4867   -0.9007    0.7926 C   0  0  0  0  0  0  0  0  0  0  0  0
   -0.8429   -1.3366    0.7492 C   0  0  0  0  0  0  0  0  0  0  0  0
   -1.2987   -2.6149    1.3491 C   0  0  0  0  0  0  0  0  0  0  0  0
   -0.2632   -3.5120    1.4546 F   0  0  0  0  0  0  0  0  0  0  0  0
   -2.2971   -3.1541    0.5495 F   0  0  0  0  0  0  0  0  0  0  0  0
   -1.7997   -2.3715    2.6144 F   0  0  0  0  0  0  0  0  0  0  0  0
   -1.7667   -0.6078    0.1112 N   0  0  0  0  0  0  0  0  0  0  0  0
   -1.4363    0.5358   -0.4867 C   0  0  0  0  0  0  0  0  0  0  0  0
   -0.1274    0.9934   -0.4591 C   0  0  0  0  0  0  0  0  0  0  0  0
    0.1610    2.1706   -1.1023 C   0  0  0  0  0  0  0  0  0  0  0  0
   -0.8028    2.9090   -1.7766 C   0  0  0  0  0  0  0  0  0  0  0  0
   -2.0995    2.4234   -1.7799 C   0  0  0  0  0  0  0  0  0  0  0  0
   -2.3874    1.2551   -1.1366 C   0  0  0  0  0  0  0  0  0  0  0  0
   -3.8315    0.8660   -1.0878 C   0  0  0  0  0  0  0  0  0  0  0  0
   -4.3086    1.0053    0.2104 F   0  0  0  0  0  0  0  0  0  0  0  0
   -3.9190   -0.5315   -1.2988 F   0  0  0  0  0  0  0  0  0  0  0  0
   -4.6138    1.4944   -2.0069 F   0  0  0  0  0  0  0  0  0  0  0  0
    3.0306   -0.2359    1.1667 C   0  0  2  0  0  0  0  0  0  0  0  0
    4.4322    0.5765    1.2797 C   0  0  0  0  0  0  0  0  0  0  0  0
    5.5983   -0.2093    0.8747 C   0  0  0  0  0  0  0  0  0  0  0  0
    5.6201   -0.1996   -0.6432 C   0  0  0  0  0  0  0  0  0  0  0  0
    4.1445   -0.3536   -0.9952 C   0  0  0  0  0  0  0  0  0  0  0  0
    3.4446   -1.1576   -0.0485 N   0  0  0  0  0  0  0  0  0  0  0  0
  2  1  1  1
  2  3  1  0
  3  4  2  0
  4  5  1  0
  5  6  1  0
  6  7  1  0
  6  8  1  0
  6  9  1  0
  5 10  2  0
 10 11  1  0
 11 12  2  0
 12 13  1  0
 13 14  2  0
 14 15  1  0
 15 16  2  0
 16 17  1  0
 17 18  1  0
 17 19  1  0
 17 20  1  0
  2 21  1  0
 21 22  1  6
 22 23  1  0
 23 24  1  0
 24 25  1  0
 25 26  1  0
 12  3  1  0
 26 21  1  0
 16 11  1  0
M  END
>  <zinc_id>  (1) 
ZINC000000897089

>  <smiles>  (1) 
O[C@H](c1cc(C(F)(F)F)nc2c(C(F)(F)F)cccc12)[C@@H]1CCCCN1

$$$$
