
     RDKit          3D

 23 24  0  0  0  0  0  0  0  0999 V2000
    6.2168    1.7823   -0.0447 C   0  0  0  0  0  0  0  0  0  0  0  0
    5.2172    0.9982    0.7366 C   0  0  0  0  0  0  0  0  0  0  0  0
    4.0382    1.9468    0.9810 C   0  0  0  0  0  0  0  0  0  0  0  0
    4.8291   -0.2510    0.0155 C   0  0  2  0  0  0  0  0  0  0  0  0
    4.2384    0.1022   -1.3107 C   0  0  0  0  0  0  0  0  0  0  0  0
    2.8000    0.5331   -0.9909 C   0  0  0  0  0  0  0  0  0  0  0  0
    2.1056   -0.7645   -0.6012 C   0  0  2  0  0  0  0  0  0  0  0  0
    0.6741   -0.6207   -0.7449 C   0  0  0  0  0  0  0  0  0  0  0  0
    0.2642    0.4967   -1.1408 O   0  0  0  0  0  0  0  0  0  0  0  0
   -0.2925   -1.6303   -0.4750 N   0  0  0  0  0  0  0  0  0  0  0  0
   -1.7971   -1.1999   -0.7046 C   0  0  2  0  0  0  0  0  0  0  0  0
   -1.7409   -0.0023    0.3565 C   0  0  0  0  0  0  0  0  0  0  0  0
   -3.0126    0.7193    0.4336 C   0  0  0  0  0  0  0  0  0  0  0  0
   -3.3886    1.7033   -0.4791 C   0  0  0  0  0  0  0  0  0  0  0  0
   -4.5391    2.4378   -0.4121 C   0  0  0  0  0  0  0  0  0  0  0  0
   -5.4308    2.2083    0.6501 C   0  0  0  0  0  0  0  0  0  0  0  0
   -5.0809    1.2639    1.5442 C   0  0  0  0  0  0  0  0  0  0  0  0
   -3.9268    0.5373    1.4607 C   0  0  0  0  0  0  0  0  0  0  0  0
   -2.4497   -2.3213    0.1801 C   0  0  0  0  0  0  0  0  0  0  0  0
   -1.6874   -3.3536    0.3679 O   0  0  0  0  0  0  0  0  0  0  0  0
   -3.6930   -2.2494    0.7155 O   0  0  0  0  0  0  0  0  0  0  0  0
    2.5826   -1.1019    0.7743 C   0  0  0  0  0  0  0  0  0  0  0  0
    4.0728   -1.2343    0.8069 C   0  0  0  0  0  0  0  0  0  0  0  0
  1  2  1  0
  2  3  1  0
  4  2  1  1
  4  5  1  0
  5  6  1  0
  6  7  1  0
  7  8  1  1
  8  9  2  0
  8 10  1  0
 10 11  1  0
 11 12  1  1
 12 13  1  0
 13 14  2  0
 14 15  1  0
 15 16  2  0
 16 17  1  0
 17 18  2  0
 11 19  1  0
 19 20  2  0
 19 21  1  0
  7 22  1  0
 22 23  1  0
 23  4  1  0
 18 13  1  0
M  END
>  <zinc_id>  (1) 
ZINC000000009689

>  <smiles>  (1) 
CC(C)C1CCC(C(=O)N[C@H](Cc2ccccc2)C(=O)O)CC1

$$$$
