
     RDKit          3D

 27 28  0  0  0  0  0  0  0  0999 V2000
   -2.2663    3.3634   -0.8238 C   0  0  0  0  0  0  0  0  0  0  0  0
   -2.1233    2.9696   -0.8074 C   0  0  0  0  0  0  0  0  0  0  0  0
   -1.6894    1.6097   -0.8767 O   0  0  0  0  0  0  0  0  0  0  0  0
   -1.0032    1.1347    0.2365 C   0  0  0  0  0  0  0  0  0  0  0  0
   -0.7504    1.7669    1.2350 O   0  0  0  0  0  0  0  0  0  0  0  0
   -0.5506   -0.4059    0.0722 C   0  0  2  0  0  0  0  0  0  0  0  0
   -1.9627   -1.0215    0.6985 C   0  0  0  0  0  0  0  0  0  0  0  0
   -2.9738   -0.4754   -0.2684 C   0  0  0  0  0  0  0  0  0  0  0  0
   -4.3270   -0.9403    0.1493 C   0  0  0  0  0  0  0  0  0  0  0  0
   -5.0510   -0.1542    1.0278 C   0  0  0  0  0  0  0  0  0  0  0  0
   -6.3101   -0.5284    1.4481 C   0  0  0  0  0  0  0  0  0  0  0  0
   -6.8637   -1.6950    0.9958 C   0  0  0  0  0  0  0  0  0  0  0  0
   -6.1492   -2.4775    0.1247 C   0  0  0  0  0  0  0  0  0  0  0  0
   -4.8955   -2.0951   -0.2877 C   0  0  0  0  0  0  0  0  0  0  0  0
    0.2357   -0.5396    1.4401 N   0  0  0  0  0  0  0  0  0  0  0  0
    1.3945    0.5050    1.1646 C   0  0  1  0  0  0  0  0  0  0  0  0
    2.1542    0.1531    2.5977 C   0  0  0  0  0  0  0  0  0  0  0  0
    2.3176   -0.4036    0.2741 C   0  0  0  0  0  0  0  0  0  0  0  0
    1.9724   -1.5316    0.0635 O   0  0  0  0  0  0  0  0  0  0  0  0
    3.4606    0.2356   -0.1767 N   0  0  0  0  0  0  0  0  0  0  0  0
    4.0410    1.5089   -0.0474 C   0  0  0  0  0  0  0  0  0  0  0  0
    4.2285    1.7832   -1.5500 C   0  0  0  0  0  0  0  0  0  0  0  0
    5.1781    0.6885   -1.7782 C   0  0  0  0  0  0  0  0  0  0  0  0
    4.4101   -0.6251   -1.0941 C   0  0  1  0  0  0  0  0  0  0  0  0
    5.5569   -0.8678    0.0232 C   0  0  0  0  0  0  0  0  0  0  0  0
    6.4735   -1.5837   -0.4802 O   0  0  0  0  0  0  0  0  0  0  0  0
    5.4932   -0.3740    1.2468 O   0  0  0  0  0  0  0  0  0  0  0  0
  1  2  1  0
  2  3  1  0
  3  4  1  0
  4  5  2  0
  4  6  1  0
  6  7  1  1
  7  8  1  0
  8  9  1  0
  9 10  2  0
 10 11  1  0
 11 12  2  0
 12 13  1  0
 13 14  2  0
  6 15  1  0
 15 16  1  0
 16 17  1  1
 16 18  1  0
 18 19  2  0
 18 20  1  0
 20 21  1  0
 21 22  1  0
 22 23  1  0
 23 24  1  0
 24 25  1  1
 25 26  2  0
 25 27  1  0
 14  9  1  0
 24 20  1  0
M  END
>  <zinc_id>  (1) 
ZINC000003791297

>  <smiles>  (1) 
CCOC(=O)[C@H](CCc1ccccc1)N[C@@H](C)C(=O)N1CCC[C@H]1C(=O)O

$$$$
