
     RDKit          3D

 27 30  0  0  0  0  0  0  0  0999 V2000
   -3.2398   -2.8342    0.4749 C   0  0  0  0  0  0  0  0  0  0  0  0
   -2.2845   -1.7105    1.1901 C   0  0  1  0  0  0  0  0  0  0  0  0
   -1.1396   -1.8523   -0.0332 C   0  0  0  0  0  0  0  0  0  0  0  0
   -0.2166   -0.6793    0.5380 C   0  0  1  0  0  0  0  0  0  0  0  0
    1.0420   -1.0822   -0.5696 C   0  0  2  0  0  0  0  0  0  0  0  0
    1.7937   -2.1415    0.4038 C   0  0  0  0  0  0  0  0  0  0  0  0
    3.2194   -1.8288   -0.0790 C   0  0  0  0  0  0  0  0  0  0  0  0
    3.1689   -0.4342   -0.7197 C   0  0  2  0  0  0  0  0  0  0  0  0
    2.8646   -0.5182   -2.0609 O   0  0  0  0  0  0  0  0  0  0  0  0
    4.3517    0.3629   -0.4336 C   0  0  0  0  0  0  0  0  0  0  0  0
    4.6996    0.4939    0.7324 O   0  0  0  0  0  0  0  0  0  0  0  0
    5.1976    1.0500   -1.4505 C   0  0  0  0  0  0  0  0  0  0  0  0
    4.7057    0.8301   -2.7367 O   0  0  0  0  0  0  0  0  0  0  0  0
    1.9583    0.1251    0.0051 C   0  0  2  0  0  0  0  0  0  0  0  0
    2.2730   -0.0645    1.4109 C   0  0  0  0  0  0  0  0  0  0  0  0
    1.5373    1.2886   -0.6453 C   0  0  0  0  0  0  0  0  0  0  0  0
    0.0581    1.8156   -0.0678 C   0  0  2  0  0  0  0  0  0  0  0  0
    0.3536    1.4735    1.3745 O   0  0  0  0  0  0  0  0  0  0  0  0
   -0.7952    0.4327   -0.5514 C   0  0  2  0  0  0  0  0  0  0  0  0
   -2.1997    0.7075    0.1539 C   0  0  1  0  0  0  0  0  0  0  0  0
   -1.9792    1.3996    1.5168 C   0  0  0  0  0  0  0  0  0  0  0  0
   -2.9264    1.7179   -0.5533 C   0  0  0  0  0  0  0  0  0  0  0  0
   -4.1573    1.6551   -0.9297 C   0  0  0  0  0  0  0  0  0  0  0  0
   -4.9746    0.4491   -0.6479 C   0  0  0  0  0  0  0  0  0  0  0  0
   -6.1563    0.3234   -0.9722 O   0  0  0  0  0  0  0  0  0  0  0  0
   -4.1866   -0.5507    0.0585 C   0  0  0  0  0  0  0  0  0  0  0  0
   -2.9680   -0.4284    0.3958 C   0  0  0  0  0  0  0  0  0  0  0  0
  2  1  1  6
  2  3  1  0
  4  3  1  6
  4  5  1  0
  5  6  1  1
  6  7  1  0
  7  8  1  0
  8  9  1  6
  8 10  1  0
 10 11  2  0
 10 12  1  0
 12 13  1  0
  8 14  1  0
 14 15  1  1
 14 16  1  0
 16 17  1  0
 17 18  1  1
 19 17  1  1
 19 20  1  0
 20 21  1  1
 20 22  1  0
 22 23  2  0
 23 24  1  0
 24 25  2  0
 24 26  1  0
 26 27  2  0
 27  2  1  0
 19  4  1  0
 27 20  1  0
 14  5  1  0
M  END
>  <zinc_id>  (1) 
ZINC000003875560

>  <smiles>  (1) 
C[C@H]1C[C@H]2[C@@H]3CC[C@](O)(C(=O)CO)[C@@]3(C)C[C@H](O)[C@@H]2[C@@]2(C)C=CC(=O)C=C12

$$$$
