
     RDKit          3D

 36 39  0  0  0  0  0  0  0  0999 V2000
    0.5718   -4.3310   -0.9029 C   0  0  0  0  0  0  0  0  0  0  0  0
    1.3035   -3.4728   -0.4411 O   0  0  0  0  0  0  0  0  0  0  0  0
    0.6210   -2.2561   -0.2390 C   0  0  1  0  0  0  0  0  0  0  0  0
    1.3469   -1.2074    0.2897 N   0  0  0  0  0  0  0  0  0  0  0  0
    2.2893   -1.1892    1.3458 C   0  0  0  0  0  0  0  0  0  0  0  0
    2.5153   -2.3245    1.8911 O   0  0  0  0  0  0  0  0  0  0  0  0
    2.9561    0.0590    1.7761 C   0  0  0  0  0  0  0  0  0  0  0  0
    4.7500   -0.2476    1.9718 S   0  0  0  0  0  0  0  0  0  0  0  0
    5.0431    0.8473    0.5966 C   0  0  0  0  0  0  0  0  0  0  0  0
    6.0916    1.1961   -0.0869 C   0  0  0  0  0  0  0  0  0  0  0  0
    7.3869    0.6323    0.2476 C   0  0  0  0  0  0  0  0  0  0  0  0
    7.5945   -0.2944    1.2979 N   0  0  0  0  0  0  0  0  0  0  0  0
    8.4127    0.9655   -0.4168 O   0  0  0  0  0  0  0  0  0  0  0  0
    5.9712    2.1407   -1.1741 C   0  0  0  0  0  0  0  0  0  0  0  0
    4.8728    2.6310   -1.4748 O   0  0  0  0  0  0  0  0  0  0  0  0
    7.0890    2.5059   -1.8925 O   0  0  0  0  0  0  0  0  0  0  0  0
    3.3175    1.2751    0.5205 S   0  0  0  0  0  0  0  0  0  0  0  0
   -0.2033   -1.8531   -1.4056 C   0  0  0  0  0  0  0  0  0  0  0  0
    0.1038   -1.7060   -2.6228 O   0  0  0  0  0  0  0  0  0  0  0  0
   -1.4135   -1.6955   -0.7013 N   0  0  0  0  0  0  0  0  0  0  0  0
   -2.6919   -1.1596   -0.6250 C   0  0  0  0  0  0  0  0  0  0  0  0
   -3.4053   -0.9574   -1.8668 C   0  0  0  0  0  0  0  0  0  0  0  0
   -4.5454   -0.5037   -1.8971 O   0  0  0  0  0  0  0  0  0  0  0  0
   -2.8037   -1.2774   -3.0666 O   0  0  0  0  0  0  0  0  0  0  0  0
   -3.3576   -0.8112    0.5020 C   0  0  0  0  0  0  0  0  0  0  0  0
   -4.6118   -0.2853    0.5432 C   0  0  0  0  0  0  0  0  0  0  0  0
   -6.0621    0.3225    0.5841 S   0  0  0  0  0  0  0  0  0  0  0  0
   -6.5342    1.9378    0.0302 C   0  0  0  0  0  0  0  0  0  0  0  0
   -7.7830    2.4210    0.0293 N   0  0  0  0  0  0  0  0  0  0  0  0
   -7.7847    3.6575   -0.4265 N   0  0  0  0  0  0  0  0  0  0  0  0
   -6.5302    3.9736   -0.7225 N   0  0  0  0  0  0  0  0  0  0  0  0
   -5.7784    2.9271   -0.4450 N   0  0  0  0  0  0  0  0  0  0  0  0
   -4.3642    2.8731   -0.6114 C   0  0  0  0  0  0  0  0  0  0  0  0
   -2.6559   -1.0266    1.8532 C   0  0  0  0  0  0  0  0  0  0  0  0
   -0.9017   -1.1835    1.7292 S   0  0  0  0  0  0  0  0  0  0  0  0
   -0.8101   -2.5833    0.3808 C   0  0  2  0  0  0  0  0  0  0  0  0
  1  2  1  0
  2  3  1  0
  3  4  1  1
  4  5  1  0
  5  6  2  0
  5  7  1  0
  7  8  1  0
  8  9  1  0
  9 10  2  3
 10 11  1  0
 11 12  1  0
 11 13  2  0
 10 14  1  0
 14 15  2  0
 14 16  1  0
  9 17  1  0
  3 18  1  0
 18 19  2  0
 18 20  1  0
 20 21  1  0
 21 22  1  0
 22 23  2  0
 22 24  1  0
 21 25  2  0
 25 26  1  0
 26 27  1  0
 27 28  1  0
 28 29  2  0
 29 30  1  0
 30 31  2  0
 31 32  1  0
 32 33  1  0
 25 34  1  0
 34 35  1  0
 36 35  1  1
 36  3  1  0
 17  7  1  0
 36 20  1  0
 32 28  1  0
M  END
>  <zinc_id>  (1) 
ZINC000003830441

>  <smiles>  (1) 
CO[C@@]1(NC(=O)C2SC(=C(C(N)=O)C(=O)O)S2)C(=O)N2C(C(=O)O)=C(CSc3nnnn3C)CS[C@@H]21

$$$$
